<?xml version='1.0' encoding='utf-8'?>
<febio_spec version="4.0">
  <Module type="solid" />
  <Control>
    <analysis>STATIC</analysis>
    <time_steps>1440</time_steps>
    <step_size>1</step_size>
    <solver>
      <diverge_reform>1</diverge_reform>
      <reform_each_time_step>1</reform_each_time_step>
      <dtol>0</dtol>
      <etol>1e-16</etol>
      <rtol>1e-16</rtol>
      <lstol>0.0</lstol>
      <min_residual>1e-16</min_residual>
      <rhoi>0</rhoi>
      <linear_solver type="mkl_dss" />
      <max_refs>1000</max_refs>
      <qn_method type="BFGS">
        <max_ups>0</max_ups>
      </qn_method>
      <symmetric_stiffness>1</symmetric_stiffness>
    </solver>
  </Control>
  <Globals>
    <Constants>
      <T>0</T>
      <R>0</R>
      <Fc>0</Fc>
    </Constants>
  </Globals>
  <Material>
    <material id="1" name="Material1" type="FSG">
      <density>1</density>
      <k>1000.0</k>
      <a_val lc="2" type="math"> (0.1 + (1.0 - 0.1) * exp(-abs((Z - 0.0) / 30.0) ^ 5.0))</a_val>
      <e_r type="math"> X/sqrt(X^2 + Y^2), Y/sqrt(X^2 + Y^2), 0 </e_r>
      <e_t type="math"> -Y/sqrt(X^2 + Y^2), X/sqrt(X^2 + Y^2), 0 </e_t>
      <e_z type="math"> 0, 0, 1 </e_z>
    </material>
  </Material>
  <Mesh>
    <Nodes name="Object01">
      <node id="1">8.573, 0.0, -75.0</node>
      <node id="2">9.316, 0.0, -75.0</node>
      <node id="3">8.408272208896895, 1.6725093306442678, -75.0</node>
      <node id="4">9.136995672236495, 1.817461439902251, -75.0</node>
      <node id="5">7.920419232219261, 3.280745065665915, -75.0</node>
      <node id="6">8.606861724875147, 3.5650788559131765, -75.0</node>
      <node id="7">7.128188986269722, 4.76290360767705, -75.0</node>
      <node id="8">7.745970908210513, 5.175692290810614, -75.0</node>
      <node id="9">6.062026435112274, 6.062026435112273, -75.0</node>
      <node id="10">6.587406773533878, 6.5874067735338775, -75.0</node>
      <node id="11">4.76290360767705, 7.128188986269721, -75.0</node>
      <node id="12">5.175692290810614, 7.745970908210512, -75.0</node>
      <node id="13">3.2807450656659154, 7.920419232219261, -75.0</node>
      <node id="14">3.5650788559131774, 8.606861724875147, -75.0</node>
      <node id="15">1.6725093306442682, 8.408272208896896, -75.0</node>
      <node id="16">1.8174614399022517, 9.136995672236496, -75.0</node>
      <node id="17">5.24944850454513e-16, 8.573, -75.0</node>
      <node id="18">5.704404790428372e-16, 9.316, -75.0</node>
      <node id="19">8.573, 0.0, -72.65625</node>
      <node id="20">9.316, 0.0, -72.65625</node>
<!-- ... 574 like lines cut -->
    </Nodes>
    <Elements type="hex8" mat="1" name="Part1">
      <elem id="1">1, 3, 21, 19, 2, 4, 22, 20</elem>
      <elem id="2">3, 5, 23, 21, 4, 6, 24, 22</elem>
      <elem id="3">5, 7, 25, 23, 6, 8, 26, 24</elem>
      <elem id="4">7, 9, 27, 25, 8, 10, 28, 26</elem>
      <elem id="5">9, 11, 29, 27, 10, 12, 30, 28</elem>
      <elem id="6">11, 13, 31, 29, 12, 14, 32, 30</elem>
      <elem id="7">13, 15, 33, 31, 14, 16, 34, 32</elem>
      <elem id="8">15, 17, 35, 33, 16, 18, 36, 34</elem>
      <elem id="9">19, 21, 39, 37, 20, 22, 40, 38</elem>
      <elem id="10">21, 23, 41, 39, 22, 24, 42, 40</elem>
      <elem id="11">23, 25, 43, 41, 24, 26, 44, 42</elem>
      <elem id="12">25, 27, 45, 43, 26, 28, 46, 44</elem>
      <elem id="13">27, 29, 47, 45, 28, 30, 48, 46</elem>
      <elem id="14">29, 31, 49, 47, 30, 32, 50, 48</elem>
      <elem id="15">31, 33, 51, 49, 32, 34, 52, 50</elem>
      <elem id="16">33, 35, 53, 51, 34, 36, 54, 52</elem>
      <elem id="17">37, 39, 57, 55, 38, 40, 58, 56</elem>
      <elem id="18">39, 41, 59, 57, 40, 42, 60, 58</elem>
      <elem id="19">41, 43, 61, 59, 42, 44, 62, 60</elem>
      <elem id="20">43, 45, 63, 61, 44, 46, 64, 62</elem>
<!-- ... 236 like lines cut -->
    </Elements>
    <NodeSet name="FixXs">
		17, 18, 35, 36, 53, 54, 71, 72, 89, 90, 107, 108, 125, 126, 143, 144, 161, 162, 179, 180, 197, 198, 215, 216, 233, 234, 251, 252, 269, 270, 287, 288, 305, 306, 323, 324, 341, 342, 359, 360, 377, 378, 395, 396, 413, 414, 431, 432, 449, 450, 467, 468, 485, 486, 503, 504, 521, 522, 539, 540, 557, 558, 575, 576, 593, 594
	</NodeSet>
    <NodeSet name="FixYs">
		1, 2, 19, 20, 37, 38, 55, 56, 73, 74, 91, 92, 109, 110, 127, 128, 145, 146, 163, 164, 181, 182, 199, 200, 217, 218, 235, 236, 253, 254, 271, 272, 289, 290, 307, 308, 325, 326, 343, 344, 361, 362, 379, 380, 397, 398, 415, 416, 433, 434, 451, 452, 469, 470, 487, 488, 505, 506, 523, 524, 541, 542, 559, 560, 577, 578
	</NodeSet>
    <Surface name="FixZs">
      <quad4 id="1">1, 2, 4, 3</quad4>
      <quad4 id="2">3, 4, 6, 5</quad4>
      <quad4 id="3">5, 6, 8, 7</quad4>
      <quad4 id="4">7, 8, 10, 9</quad4>
      <quad4 id="5">9, 10, 12, 11</quad4>
      <quad4 id="6">11, 12, 14, 13</quad4>
      <quad4 id="7">13, 14, 16, 15</quad4>
      <quad4 id="8">15, 16, 18, 17</quad4>
      <quad4 id="9">577, 578, 580, 579</quad4>
      <quad4 id="10">579, 580, 582, 581</quad4>
      <quad4 id="11">581, 582, 584, 583</quad4>
      <quad4 id="12">583, 584, 586, 585</quad4>
      <quad4 id="13">585, 586, 588, 587</quad4>
      <quad4 id="14">587, 588, 590, 589</quad4>
      <quad4 id="15">589, 590, 592, 591</quad4>
      <quad4 id="16">591, 592, 594, 593</quad4>
    </Surface>
    <Surface name="PressureLoad1">
      <quad4 id="1">1, 19, 21, 3</quad4>
      <quad4 id="2">3, 21, 23, 5</quad4>
      <quad4 id="3">5, 23, 25, 7</quad4>
      <quad4 id="4">7, 25, 27, 9</quad4>
      <quad4 id="5">9, 27, 29, 11</quad4>
      <quad4 id="6">11, 29, 31, 13</quad4>
      <quad4 id="7">13, 31, 33, 15</quad4>
      <quad4 id="8">15, 33, 35, 17</quad4>
      <quad4 id="9">19, 37, 39, 21</quad4>
      <quad4 id="10">21, 39, 41, 23</quad4>
      <quad4 id="11">23, 41, 43, 25</quad4>
      <quad4 id="12">25, 43, 45, 27</quad4>
      <quad4 id="13">27, 45, 47, 29</quad4>
      <quad4 id="14">29, 47, 49, 31</quad4>
      <quad4 id="15">31, 49, 51, 33</quad4>
      <quad4 id="16">33, 51, 53, 35</quad4>
      <quad4 id="17">37, 55, 57, 39</quad4>
      <quad4 id="18">39, 57, 59, 41</quad4>
      <quad4 id="19">41, 59, 61, 43</quad4>
      <quad4 id="20">43, 61, 63, 45</quad4>
<!-- ... 236 like lines cut -->
    </Surface>
  </Mesh>
  <MeshDomains>
    <SolidDomain name="Part1" mat="Material1" type="three-field-solid">
      <laugon>1</laugon>
      <atol>1e-6</atol>
      <maxaug>6</maxaug>
    </SolidDomain>
  </MeshDomains>
  <Boundary>
    <bc name="FixYs" type="zero displacement" node_set="FixYs">
      <x_dof>0</x_dof>
      <y_dof>1</y_dof>
      <z_dof>0</z_dof>
    </bc>
    <bc name="FixZs" type="zero displacement" node_set="@surface:FixZs">
      <x_dof>0</x_dof>
      <y_dof>0</y_dof>
      <z_dof>1</z_dof>
    </bc>
    <bc name="FixXs" type="zero displacement" node_set="FixXs">
      <x_dof>1</x_dof>
      <y_dof>0</y_dof>
      <z_dof>0</z_dof>
    </bc>
  </Boundary>
  <Loads>
    <surface_load type="pressure" surface="PressureLoad1">
      <pressure lc="1">0.615</pressure>
      <linear>0</linear>
      <symmetric_stiffness>0</symmetric_stiffness>
    </surface_load>
  </Loads>
  <LoadData>
    <load_controller id="1" type="loadcurve">
      <interpolate>LINEAR</interpolate>
      <points>
        <point>0,1.0</point>
        <point>1,1.0</point>
      </points>
    </load_controller>
    <load_controller id="2" type="loadcurve">
      <interpolate>LINEAR</interpolate>
      <points>
        <point>0,0.0</point>
        <point>1,0.0</point>
        <point>11,1.0</point>
      </points>
    </load_controller>
  </LoadData>
  <Output>
    <plotfile type="vtk">
      <var type="displacement" />
      <var type="relative volume" />
      <var type="stress" />
      <var type="SPR stress" />
      <var type="SPR principal stress" />
      <var type="deformation gradient" />
      <var type="strain energy density" />
      <var type="acceleration" />
      <var type="velocity" />
    </plotfile>
  </Output>
</febio_spec>