<?xml version='1.0' encoding='utf-8'?>
<febio_spec version="4.0">
  <Module type="solid" />
  <Control>
    <analysis>STATIC</analysis>
    <time_steps>720</time_steps>
    <step_size>1</step_size>
    <solver>
      <diverge_reform>1</diverge_reform>
      <reform_each_time_step>1</reform_each_time_step>
      <dtol>0</dtol>
      <etol>1e-16</etol>
      <rtol>1e-16</rtol>
      <lstol>0.0</lstol>
      <min_residual>1e-4</min_residual>
      <rhoi>0</rhoi>
      <linear_solver type="mkl_dss" />
      <max_refs>1000</max_refs>
      <qn_method type="Broyden">
        <max_ups>0</max_ups>
      </qn_method>
      <symmetric_stiffness>1</symmetric_stiffness>
    </solver>
  </Control>
  <Globals>
    <Constants>
      <T>0</T>
      <R>0</R>
      <Fc>0</Fc>
    </Constants>
  </Globals>
  <Material>
    <material id="1" name="Material1" type="FSG">
      <density>1</density>
      <k>10000.0</k>
      <a_val lc="2" type="math"> (0.1 + (1.0 - 0.1) * exp(-abs((Z - 0.0) / 3.0) ^ 5.0))</a_val>
      <e_r type="math"> X/sqrt(X^2 + Y^2), Y/sqrt(X^2 + Y^2), 0 </e_r>
      <e_t type="math"> -Y/sqrt(X^2 + Y^2), X/sqrt(X^2 + Y^2), 0 </e_t>
      <e_z type="math"> 0, 0, 1 </e_z>
    </material>
  </Material>
  <Mesh>
    <Nodes name="Object01">
      <node id="1">0.6468, 0.0, -7.5</node>
      <node id="2">0.6669, 0.0, -7.5</node>
      <node id="3">0.687, 0.0, -7.5</node>
      <node id="4">0.6388368186969351, 0.10118181198802133, -7.5</node>
      <node id="5">0.6586893543428973, 0.10432614473532997, -7.5</node>
      <node id="6">0.6785418899888597, 0.10747047748263862, -7.5</node>
      <node id="7">0.6151433547397054, 0.19987219196171602, -7.5</node>
      <node id="8">0.634259590717238, 0.20608343354865247, -7.5</node>
      <node id="9">0.6533758266947706, 0.21229467513558892, -7.5</node>
      <node id="10">0.5763030198450363, 0.2936410552315389, -7.5</node>
      <node id="11">0.5942122509812224, 0.30276626427630376, -7.5</node>
      <node id="12">0.6121214821174087, 0.31189147332106865, -7.5</node>
      <node id="13">0.5232721919617161, 0.38017950118277155, -7.5</node>
      <node id="14">0.5395334335486526, 0.3919939847538503, -7.5</node>
      <node id="15">0.555794675135589, 0.403808468324929, -7.5</node>
      <node id="16">0.4573566660714591, 0.457356666071459, -7.5</node>
      <node id="17">0.4715695123733087, 0.47156951237330863, -7.5</node>
      <node id="18">0.4857823586751583, 0.48578235867515823, -7.5</node>
      <node id="19">0.38017950118277166, 0.523272191961716, -7.5</node>
      <node id="20">0.3919939847538504, 0.5395334335486525, -7.5</node>
<!-- ... 2653 like lines cut -->
    </Nodes>
    <Elements type="hex27" mat="1" name="Part1">
      <elem id="1">1, 7, 73, 67, 3, 9, 75, 69, 4, 40, 70, 34, 6, 42, 72, 36, 2, 8, 74, 68, 5, 41, 71, 35, 37, 39, 38</elem>
      <elem id="2">7, 13, 79, 73, 9, 15, 81, 75, 10, 46, 76, 40, 12, 48, 78, 42, 8, 14, 80, 74, 11, 47, 77, 41, 43, 45, 44</elem>
      <elem id="3">13, 19, 85, 79, 15, 21, 87, 81, 16, 52, 82, 46, 18, 54, 84, 48, 14, 20, 86, 80, 17, 53, 83, 47, 49, 51, 50</elem>
      <elem id="4">19, 25, 91, 85, 21, 27, 93, 87, 22, 58, 88, 52, 24, 60, 90, 54, 20, 26, 92, 86, 23, 59, 89, 53, 55, 57, 56</elem>
      <elem id="5">25, 31, 97, 91, 27, 33, 99, 93, 28, 64, 94, 58, 30, 66, 96, 60, 26, 32, 98, 92, 29, 65, 95, 59, 61, 63, 62</elem>
      <elem id="6">67, 73, 139, 133, 69, 75, 141, 135, 70, 106, 136, 100, 72, 108, 138, 102, 68, 74, 140, 134, 71, 107, 137, 101, 103, 105, 104</elem>
      <elem id="7">73, 79, 145, 139, 75, 81, 147, 141, 76, 112, 142, 106, 78, 114, 144, 108, 74, 80, 146, 140, 77, 113, 143, 107, 109, 111, 110</elem>
      <elem id="8">79, 85, 151, 145, 81, 87, 153, 147, 82, 118, 148, 112, 84, 120, 150, 114, 80, 86, 152, 146, 83, 119, 149, 113, 115, 117, 116</elem>
      <elem id="9">85, 91, 157, 151, 87, 93, 159, 153, 88, 124, 154, 118, 90, 126, 156, 120, 86, 92, 158, 152, 89, 125, 155, 119, 121, 123, 122</elem>
      <elem id="10">91, 97, 163, 157, 93, 99, 165, 159, 94, 130, 160, 124, 96, 132, 162, 126, 92, 98, 164, 158, 95, 131, 161, 125, 127, 129, 128</elem>
      <elem id="11">133, 139, 205, 199, 135, 141, 207, 201, 136, 172, 202, 166, 138, 174, 204, 168, 134, 140, 206, 200, 137, 173, 203, 167, 169, 171, 170</elem>
      <elem id="12">139, 145, 211, 205, 141, 147, 213, 207, 142, 178, 208, 172, 144, 180, 210, 174, 140, 146, 212, 206, 143, 179, 209, 173, 175, 177, 176</elem>
      <elem id="13">145, 151, 217, 211, 147, 153, 219, 213, 148, 184, 214, 178, 150, 186, 216, 180, 146, 152, 218, 212, 149, 185, 215, 179, 181, 183, 182</elem>
      <elem id="14">151, 157, 223, 217, 153, 159, 225, 219, 154, 190, 220, 184, 156, 192, 222, 186, 152, 158, 224, 218, 155, 191, 221, 185, 187, 189, 188</elem>
      <elem id="15">157, 163, 229, 223, 159, 165, 231, 225, 160, 196, 226, 190, 162, 198, 228, 192, 158, 164, 230, 224, 161, 197, 227, 191, 193, 195, 194</elem>
      <elem id="16">199, 205, 271, 265, 201, 207, 273, 267, 202, 238, 268, 232, 204, 240, 270, 234, 200, 206, 272, 266, 203, 239, 269, 233, 235, 237, 236</elem>
      <elem id="17">205, 211, 277, 271, 207, 213, 279, 273, 208, 244, 274, 238, 210, 246, 276, 240, 206, 212, 278, 272, 209, 245, 275, 239, 241, 243, 242</elem>
      <elem id="18">211, 217, 283, 277, 213, 219, 285, 279, 214, 250, 280, 244, 216, 252, 282, 246, 212, 218, 284, 278, 215, 251, 281, 245, 247, 249, 248</elem>
      <elem id="19">217, 223, 289, 283, 219, 225, 291, 285, 220, 256, 286, 250, 222, 258, 288, 252, 218, 224, 290, 284, 221, 257, 287, 251, 253, 255, 254</elem>
      <elem id="20">223, 229, 295, 289, 225, 231, 297, 291, 226, 262, 292, 256, 228, 264, 294, 258, 224, 230, 296, 290, 227, 263, 293, 257, 259, 261, 260</elem>
<!-- ... 180 like lines cut -->
    </Elements>
    <NodeSet name="FixXs">
		31, 32, 33, 64, 65, 66, 97, 98, 99, 130, 131, 132, 163, 164, 165, 196, 197, 198, 229, 230, 231, 262, 263, 264, 295, 296, 297, 328, 329, 330, 361, 362, 363, 394, 395, 396, 427, 428, 429, 460, 461, 462, 493, 494, 495, 526, 527, 528, 559, 560, 561, 592, 593, 594, 625, 626, 627, 658, 659, 660, 691, 692, 693, 724, 725, 726, 757, 758, 759, 790, 791, 792, 823, 824, 825, 856, 857, 858, 889, 890, 891, 92
	</NodeSet>
    <NodeSet name="FixYs">
		1, 2, 3, 34, 35, 36, 67, 68, 69, 100, 101, 102, 133, 134, 135, 166, 167, 168, 199, 200, 201, 232, 233, 234, 265, 266, 267, 298, 299, 300, 331, 332, 333, 364, 365, 366, 397, 398, 399, 430, 431, 432, 463, 464, 465, 496, 497, 498, 529, 530, 531, 562, 563, 564, 595, 596, 597, 628, 629, 630, 661, 662, 663, 694, 695, 696, 727, 728, 729, 760, 761, 762, 793, 794, 795, 826, 827, 828, 859, 860, 861, 892, 
	</NodeSet>
    <Surface name="FixZs">
      <quad9 id="1">1, 3, 9, 7, 2, 6, 8, 4, 5</quad9>
      <quad9 id="2">7, 9, 15, 13, 8, 12, 14, 10, 11</quad9>
      <quad9 id="3">13, 15, 21, 19, 14, 18, 20, 16, 17</quad9>
      <quad9 id="4">19, 21, 27, 25, 20, 24, 26, 22, 23</quad9>
      <quad9 id="5">25, 27, 33, 31, 26, 30, 32, 28, 29</quad9>
      <quad9 id="6">2641, 2643, 2649, 2647, 2642, 2646, 2648, 2644, 2645</quad9>
      <quad9 id="7">2647, 2649, 2655, 2653, 2648, 2652, 2654, 2650, 2651</quad9>
      <quad9 id="8">2653, 2655, 2661, 2659, 2654, 2658, 2660, 2656, 2657</quad9>
      <quad9 id="9">2659, 2661, 2667, 2665, 2660, 2664, 2666, 2662, 2663</quad9>
      <quad9 id="10">2665, 2667, 2673, 2671, 2666, 2670, 2672, 2668, 2669</quad9>
    </Surface>
    <Surface name="PressureLoad1">
      <quad9 id="1">1, 67, 73, 7, 34, 70, 40, 4, 37</quad9>
      <quad9 id="2">7, 73, 79, 13, 40, 76, 46, 10, 43</quad9>
      <quad9 id="3">13, 79, 85, 19, 46, 82, 52, 16, 49</quad9>
      <quad9 id="4">19, 85, 91, 25, 52, 88, 58, 22, 55</quad9>
      <quad9 id="5">25, 91, 97, 31, 58, 94, 64, 28, 61</quad9>
      <quad9 id="6">67, 133, 139, 73, 100, 136, 106, 70, 103</quad9>
      <quad9 id="7">73, 139, 145, 79, 106, 142, 112, 76, 109</quad9>
      <quad9 id="8">79, 145, 151, 85, 112, 148, 118, 82, 115</quad9>
      <quad9 id="9">85, 151, 157, 91, 118, 154, 124, 88, 121</quad9>
      <quad9 id="10">91, 157, 163, 97, 124, 160, 130, 94, 127</quad9>
      <quad9 id="11">133, 199, 205, 139, 166, 202, 172, 136, 169</quad9>
      <quad9 id="12">139, 205, 211, 145, 172, 208, 178, 142, 175</quad9>
      <quad9 id="13">145, 211, 217, 151, 178, 214, 184, 148, 181</quad9>
      <quad9 id="14">151, 217, 223, 157, 184, 220, 190, 154, 187</quad9>
      <quad9 id="15">157, 223, 229, 163, 190, 226, 196, 160, 193</quad9>
      <quad9 id="16">199, 265, 271, 205, 232, 268, 238, 202, 235</quad9>
      <quad9 id="17">205, 271, 277, 211, 238, 274, 244, 208, 241</quad9>
      <quad9 id="18">211, 277, 283, 217, 244, 280, 250, 214, 247</quad9>
      <quad9 id="19">217, 283, 289, 223, 250, 286, 256, 220, 253</quad9>
      <quad9 id="20">223, 289, 295, 229, 256, 292, 262, 226, 259</quad9>
<!-- ... 180 like lines cut -->
    </Surface>
  </Mesh>
  <MeshDomains>
    <SolidDomain name="Part1" mat="Material1">
    </SolidDomain>
  </MeshDomains>
  <Boundary>
    <bc name="FixYs" type="zero displacement" node_set="FixYs">
      <x_dof>0</x_dof>
      <y_dof>1</y_dof>
      <z_dof>0</z_dof>
    </bc>
    <bc name="FixZs" type="zero displacement" node_set="@surface:FixZs">
      <x_dof>0</x_dof>
      <y_dof>0</y_dof>
      <z_dof>1</z_dof>
    </bc>
    <bc name="FixXs" type="zero displacement" node_set="FixXs">
      <x_dof>1</x_dof>
      <y_dof>0</y_dof>
      <z_dof>0</z_dof>
    </bc>
  </Boundary>
  <Loads>
    <surface_load type="pressure" surface="PressureLoad1">
      <pressure lc="1">13.9868</pressure>
      <linear>0</linear>
      <symmetric_stiffness>0</symmetric_stiffness>
    </surface_load>
  </Loads>
  <LoadData>
    <load_controller id="1" type="loadcurve">
      <interpolate>LINEAR</interpolate>
      <points>
        <point>0,1.0</point>
        <point>1,1.0</point>
      </points>
    </load_controller>
    <load_controller id="2" type="loadcurve">
      <interpolate>LINEAR</interpolate>
      <points>
        <point>0,0.0</point>
        <point>10,1.0</point>
      </points>
    </load_controller>
  </LoadData>
  <Output>
    <plotfile type="vtk">
      <var type="displacement" />
      <var type="relative volume" />
      <var type="stress" />
      <var type="SPR stress" />
      <var type="Lagrange strain" />
      <var type="SPR principal stress" />
      <var type="strain energy density" />
      <var type="acceleration" />
      <var type="velocity" />
    </plotfile>
  </Output>
</febio_spec>