<?xml version='1.0' encoding='utf-8'?>
<febio_spec version="4.0">
  <Module type="solid" />
  <Control>
    <analysis>STATIC</analysis>
    <time_steps>2881</time_steps>
    <step_size>1</step_size>
    <solver>
      <diverge_reform>1</diverge_reform>
      <reform_each_time_step>1</reform_each_time_step>
      <dtol>0</dtol>
      <etol>1e-8</etol>
      <rtol>1e-8</rtol>
      <lstol>0.0</lstol>
      <min_residual>1e-8</min_residual>
      <rhoi>0</rhoi>
      <linear_solver type="mkl_dss" />
      <max_refs>1000</max_refs>
      <qn_method type="Broyden">
        <max_ups>0</max_ups>
      </qn_method>
      <symmetric_stiffness>0</symmetric_stiffness>
    </solver>
  </Control>
  <Globals>
    <Constants>
      <T>0</T>
      <R>0</R>
      <Fc>0</Fc>
    </Constants>
  </Globals>
  <Material>
    <material id="1" name="Material1" type="FSG">
      <density>1</density>
      <k>1000.0</k>
      <elastin_injury_val lc="2" type="math"> 0.7 * exp(-abs((Z - 0.0) / 3.0) ^ 5.0)</elastin_injury_val>
      <e_r type="math"> X/sqrt(X^2 + Y^2), Y/sqrt(X^2 + Y^2), 0 </e_r>
      <e_t type="math"> -Y/sqrt(X^2 + Y^2), X/sqrt(X^2 + Y^2), 0 </e_t>
      <e_z type="math"> 0, 0, 1 </e_z>
    </material>
  </Material>
  <Mesh>
    <Nodes name="Object01">
      <node id="1">0.6468, 0.0, -7.5</node>
      <node id="2">0.6669, 0.0, -7.5</node>
      <node id="3">0.687, 0.0, -7.5</node>
      <node id="4">0.6247608244437695, 0.16740415837231043, -7.5</node>
      <node id="5">0.6441759335521797, 0.1726064211788711, -7.5</node>
      <node id="6">0.66359104266059, 0.17780868398543176, -7.5</node>
      <node id="7">0.560145231167775, 0.32339999999999997, -7.5</node>
      <node id="8">0.5775523417838422, 0.33344999999999997, -7.5</node>
      <node id="9">0.5949594523999094, 0.34349999999999997, -7.5</node>
      <node id="10">0.457356666071459, 0.4573566660714589, -7.5</node>
      <node id="11">0.47156951237330863, 0.4715695123733085, -7.5</node>
      <node id="12">0.48578235867515823, 0.4857823586751581, -7.5</node>
      <node id="13">0.3234000000000001, 0.5601452311677749, -7.5</node>
      <node id="14">0.3334500000000001, 0.5775523417838422, -7.5</node>
      <node id="15">0.3435000000000001, 0.5949594523999093, -7.5</node>
      <node id="16">0.16740415837231043, 0.6247608244437695, -7.5</node>
      <node id="17">0.1726064211788711, 0.6441759335521797, -7.5</node>
      <node id="18">0.17780868398543176, 0.66359104266059, -7.5</node>
      <node id="19">3.9605077484425405e-17, 0.6468, -7.5</node>
      <node id="20">4.0835847517568497e-17, 0.6669, -7.5</node>
<!-- ... 505 like lines cut -->
    </Nodes>
    <Elements type="hex27" mat="1" name="Part1">
      <elem id="1">1, 7, 49, 43, 3, 9, 51, 45, 4, 28, 46, 22, 6, 30, 48, 24, 2, 8, 50, 44, 5, 29, 47, 23, 25, 27, 26</elem>
      <elem id="2">7, 13, 55, 49, 9, 15, 57, 51, 10, 34, 52, 28, 12, 36, 54, 30, 8, 14, 56, 50, 11, 35, 53, 29, 31, 33, 32</elem>
      <elem id="3">13, 19, 61, 55, 15, 21, 63, 57, 16, 40, 58, 34, 18, 42, 60, 36, 14, 20, 62, 56, 17, 41, 59, 35, 37, 39, 38</elem>
      <elem id="4">43, 49, 91, 85, 45, 51, 93, 87, 46, 70, 88, 64, 48, 72, 90, 66, 44, 50, 92, 86, 47, 71, 89, 65, 67, 69, 68</elem>
      <elem id="5">49, 55, 97, 91, 51, 57, 99, 93, 52, 76, 94, 70, 54, 78, 96, 72, 50, 56, 98, 92, 53, 77, 95, 71, 73, 75, 74</elem>
      <elem id="6">55, 61, 103, 97, 57, 63, 105, 99, 58, 82, 100, 76, 60, 84, 102, 78, 56, 62, 104, 98, 59, 83, 101, 77, 79, 81, 80</elem>
      <elem id="7">85, 91, 133, 127, 87, 93, 135, 129, 88, 112, 130, 106, 90, 114, 132, 108, 86, 92, 134, 128, 89, 113, 131, 107, 109, 111, 110</elem>
      <elem id="8">91, 97, 139, 133, 93, 99, 141, 135, 94, 118, 136, 112, 96, 120, 138, 114, 92, 98, 140, 134, 95, 119, 137, 113, 115, 117, 116</elem>
      <elem id="9">97, 103, 145, 139, 99, 105, 147, 141, 100, 124, 142, 118, 102, 126, 144, 120, 98, 104, 146, 140, 101, 125, 143, 119, 121, 123, 122</elem>
      <elem id="10">127, 133, 175, 169, 129, 135, 177, 171, 130, 154, 172, 148, 132, 156, 174, 150, 128, 134, 176, 170, 131, 155, 173, 149, 151, 153, 152</elem>
      <elem id="11">133, 139, 181, 175, 135, 141, 183, 177, 136, 160, 178, 154, 138, 162, 180, 156, 134, 140, 182, 176, 137, 161, 179, 155, 157, 159, 158</elem>
      <elem id="12">139, 145, 187, 181, 141, 147, 189, 183, 142, 166, 184, 160, 144, 168, 186, 162, 140, 146, 188, 182, 143, 167, 185, 161, 163, 165, 164</elem>
      <elem id="13">169, 175, 217, 211, 171, 177, 219, 213, 172, 196, 214, 190, 174, 198, 216, 192, 170, 176, 218, 212, 173, 197, 215, 191, 193, 195, 194</elem>
      <elem id="14">175, 181, 223, 217, 177, 183, 225, 219, 178, 202, 220, 196, 180, 204, 222, 198, 176, 182, 224, 218, 179, 203, 221, 197, 199, 201, 200</elem>
      <elem id="15">181, 187, 229, 223, 183, 189, 231, 225, 184, 208, 226, 202, 186, 210, 228, 204, 182, 188, 230, 224, 185, 209, 227, 203, 205, 207, 206</elem>
      <elem id="16">211, 217, 259, 253, 213, 219, 261, 255, 214, 238, 256, 232, 216, 240, 258, 234, 212, 218, 260, 254, 215, 239, 257, 233, 235, 237, 236</elem>
      <elem id="17">217, 223, 265, 259, 219, 225, 267, 261, 220, 244, 262, 238, 222, 246, 264, 240, 218, 224, 266, 260, 221, 245, 263, 239, 241, 243, 242</elem>
      <elem id="18">223, 229, 271, 265, 225, 231, 273, 267, 226, 250, 268, 244, 228, 252, 270, 246, 224, 230, 272, 266, 227, 251, 269, 245, 247, 249, 248</elem>
      <elem id="19">253, 259, 301, 295, 255, 261, 303, 297, 256, 280, 298, 274, 258, 282, 300, 276, 254, 260, 302, 296, 257, 281, 299, 275, 277, 279, 278</elem>
      <elem id="20">259, 265, 307, 301, 261, 267, 309, 303, 262, 286, 304, 280, 264, 288, 306, 282, 260, 266, 308, 302, 263, 287, 305, 281, 283, 285, 284</elem>
<!-- ... 16 like lines cut -->
    </Elements>
    <NodeSet name="FixXs">
		19, 20, 21, 40, 41, 42, 61, 62, 63, 82, 83, 84, 103, 104, 105, 124, 125, 126, 145, 146, 147, 166, 167, 168, 187, 188, 189, 208, 209, 210, 229, 230, 231, 250, 251, 252, 271, 272, 273, 292, 293, 294, 313, 314, 315, 334, 335, 336, 355, 356, 357, 376, 377, 378, 397, 398, 399, 418, 419, 420, 439, 440, 441, 460, 461, 462, 481, 482, 483, 502, 503, 504, 523, 524, 525
	</NodeSet>
    <NodeSet name="FixYs">
		1, 2, 3, 22, 23, 24, 43, 44, 45, 64, 65, 66, 85, 86, 87, 106, 107, 108, 127, 128, 129, 148, 149, 150, 169, 170, 171, 190, 191, 192, 211, 212, 213, 232, 233, 234, 253, 254, 255, 274, 275, 276, 295, 296, 297, 316, 317, 318, 337, 338, 339, 358, 359, 360, 379, 380, 381, 400, 401, 402, 421, 422, 423, 442, 443, 444, 463, 464, 465, 484, 485, 486, 505, 506, 507
	</NodeSet>
    <Surface name="FixZs">
      <quad9 id="1">1, 3, 9, 7, 2, 6, 8, 4, 5</quad9>
      <quad9 id="2">7, 9, 15, 13, 8, 12, 14, 10, 11</quad9>
      <quad9 id="3">13, 15, 21, 19, 14, 18, 20, 16, 17</quad9>
      <quad9 id="4">505, 507, 513, 511, 506, 510, 512, 508, 509</quad9>
      <quad9 id="5">511, 513, 519, 517, 512, 516, 518, 514, 515</quad9>
      <quad9 id="6">517, 519, 525, 523, 518, 522, 524, 520, 521</quad9>
    </Surface>
    <Surface name="PressureLoad1">
      <quad9 id="1">1, 43, 49, 7, 22, 46, 28, 4, 25</quad9>
      <quad9 id="2">7, 49, 55, 13, 28, 52, 34, 10, 31</quad9>
      <quad9 id="3">13, 55, 61, 19, 34, 58, 40, 16, 37</quad9>
      <quad9 id="4">43, 85, 91, 49, 64, 88, 70, 46, 67</quad9>
      <quad9 id="5">49, 91, 97, 55, 70, 94, 76, 52, 73</quad9>
      <quad9 id="6">55, 97, 103, 61, 76, 100, 82, 58, 79</quad9>
      <quad9 id="7">85, 127, 133, 91, 106, 130, 112, 88, 109</quad9>
      <quad9 id="8">91, 133, 139, 97, 112, 136, 118, 94, 115</quad9>
      <quad9 id="9">97, 139, 145, 103, 118, 142, 124, 100, 121</quad9>
      <quad9 id="10">127, 169, 175, 133, 148, 172, 154, 130, 151</quad9>
      <quad9 id="11">133, 175, 181, 139, 154, 178, 160, 136, 157</quad9>
      <quad9 id="12">139, 181, 187, 145, 160, 184, 166, 142, 163</quad9>
      <quad9 id="13">169, 211, 217, 175, 190, 214, 196, 172, 193</quad9>
      <quad9 id="14">175, 217, 223, 181, 196, 220, 202, 178, 199</quad9>
      <quad9 id="15">181, 223, 229, 187, 202, 226, 208, 184, 205</quad9>
      <quad9 id="16">211, 253, 259, 217, 232, 256, 238, 214, 235</quad9>
      <quad9 id="17">217, 259, 265, 223, 238, 262, 244, 220, 241</quad9>
      <quad9 id="18">223, 265, 271, 229, 244, 268, 250, 226, 247</quad9>
      <quad9 id="19">253, 295, 301, 259, 274, 298, 280, 256, 277</quad9>
      <quad9 id="20">259, 301, 307, 265, 280, 304, 286, 262, 283</quad9>
<!-- ... 16 like lines cut -->
    </Surface>
  </Mesh>
  <MeshDomains>
    <SolidDomain name="Part1" mat="Material1">
      <laugon>1</laugon>
      <atol>1e-3</atol>
      <minaug>0</minaug>
      <maxaug>0</maxaug>
    </SolidDomain>
  </MeshDomains>
  <MeshData />
  <Boundary>
    <bc name="FixXs" type="zero displacement" node_set="FixXs">
      <x_dof>1</x_dof>
      <y_dof>0</y_dof>
      <z_dof>0</z_dof>
    </bc>
    <bc name="FixYs" type="zero displacement" node_set="FixYs">
      <x_dof>0</x_dof>
      <y_dof>1</y_dof>
      <z_dof>0</z_dof>
    </bc>
    <bc name="FixZs" type="zero displacement" node_set="@surface:FixZs">
      <x_dof>0</x_dof>
      <y_dof>0</y_dof>
      <z_dof>1</z_dof>
    </bc>
  </Boundary>
  <Loads>
    <surface_load type="pressure" surface="PressureLoad1">
      <pressure lc="1">13.9868</pressure>
      <linear>0</linear>
      <symmetric_stiffness>0</symmetric_stiffness>
    </surface_load>
  </Loads>
  <LoadData>
    <load_controller id="1" type="loadcurve">
      <interpolate>LINEAR</interpolate>
      <points>
        <point>0,1.0</point>
        <point>1,1.0</point>
        <point>2,1.0</point>
      </points>
    </load_controller>
    <load_controller id="2" type="loadcurve">
      <interpolate>LINEAR</interpolate>
      <points>
        <point>0,0.0</point>
        <point>1,0.0</point>
        <point>101,1.0</point>
      </points>
    </load_controller>
  </LoadData>
  <Output>
    <plotfile type="vtk">
      <var type="displacement" />
      <var type="relative volume" />
      <var type="stress" />
      <var type="SPR stress" />
      <var type="SPR principal stress" />
      <var type="deformation gradient" />
      <var type="strain energy density" />
      <var type="acceleration" />
      <var type="velocity" />
    </plotfile>
  </Output>
</febio_spec>