<?xml version='1.0' encoding='utf-8'?>
<febio_spec version="4.0">
  <Module type="solid" />
  <Control>
    <analysis>STATIC</analysis>
    <time_steps>720</time_steps>
    <step_size>1</step_size>
    <solver>
      <diverge_reform>1</diverge_reform>
      <reform_each_time_step>1</reform_each_time_step>
      <dtol>0</dtol>
      <etol>1e-16</etol>
      <rtol>1e-16</rtol>
      <lstol>0.0</lstol>
      <min_residual>1e-12</min_residual>
      <rhoi>0</rhoi>
      <linear_solver type="mkl_dss" />
      <max_refs>1000</max_refs>
      <qn_method type="BFGS">
        <max_ups>0</max_ups>
      </qn_method>
      <symmetric_stiffness>0</symmetric_stiffness>
    </solver>
  </Control>
  <Globals>
    <Constants>
      <T>0</T>
      <R>0</R>
      <Fc>0</Fc>
    </Constants>
  </Globals>
  <Material>
    <material id="1" name="Material1" type="FSG">
      <density>1</density>
      <k>1000.0</k>
      <e_r type="math"> X/sqrt(X^2 + Y^2), Y/sqrt(X^2 + Y^2), 0 </e_r>
      <e_t type="math"> -Y/sqrt(X^2 + Y^2), X/sqrt(X^2 + Y^2), 0 </e_t>
      <e_z type="math"> 0, 0, 1 </e_z>
    </material>
  </Material>
  <Mesh>
    <Nodes name="Object01">
      <node id="1">0.6468, 0.0, -0.0201</node>
      <node id="2">0.651825, 0.0, -0.0201</node>
      <node id="3">0.65685, 0.0, -0.0201</node>
      <node id="4">0.661875, 0.0, -0.0201</node>
      <node id="5">0.6669, 0.0, -0.0201</node>
      <node id="6">0.671925, 0.0, -0.0201</node>
      <node id="7">0.67695, 0.0, -0.0201</node>
      <node id="8">0.681975, 0.0, -0.0201</node>
      <node id="9">0.687, 0.0, -0.0201</node>
      <node id="10">0.6388368186969351, 0.10118181198802133, -0.0201</node>
      <node id="11">0.6437999526084256, 0.10196789517484849, -0.0201</node>
      <node id="12">0.6487630865199162, 0.10275397836167566, -0.0201</node>
      <node id="13">0.6537262204314067, 0.1035400615485028, -0.0201</node>
      <node id="14">0.6586893543428973, 0.10432614473532997, -0.0201</node>
      <node id="15">0.6636524882543878, 0.10511222792215713, -0.0201</node>
      <node id="16">0.6686156221658784, 0.10589831110898429, -0.0201</node>
      <node id="17">0.6735787560773691, 0.10668439429581145, -0.0201</node>
      <node id="18">0.6785418899888597, 0.10747047748263862, -0.0201</node>
      <node id="19">0.6151433547397054, 0.19987219196171602, -0.0201</node>
      <node id="20">0.6199224137340885, 0.20142500235845012, -0.0201</node>
<!-- ... 277 like lines cut -->
    </Nodes>
    <Elements type="hex27" mat="1" name="Part1">
      <elem id="1">1, 19, 217, 199, 3, 21, 219, 201, 10, 118, 208, 100, 12, 120, 210, 102, 2, 20, 218, 200, 11, 119, 209, 101, 109, 111, 110</elem>
      <elem id="2">3, 21, 219, 201, 5, 23, 221, 203, 12, 120, 210, 102, 14, 122, 212, 104, 4, 22, 220, 202, 13, 121, 211, 103, 111, 113, 112</elem>
      <elem id="3">5, 23, 221, 203, 7, 25, 223, 205, 14, 122, 212, 104, 16, 124, 214, 106, 6, 24, 222, 204, 15, 123, 213, 105, 113, 115, 114</elem>
      <elem id="4">7, 25, 223, 205, 9, 27, 225, 207, 16, 124, 214, 106, 18, 126, 216, 108, 8, 26, 224, 206, 17, 125, 215, 107, 115, 117, 116</elem>
      <elem id="5">19, 37, 235, 217, 21, 39, 237, 219, 28, 136, 226, 118, 30, 138, 228, 120, 20, 38, 236, 218, 29, 137, 227, 119, 127, 129, 128</elem>
      <elem id="6">21, 39, 237, 219, 23, 41, 239, 221, 30, 138, 228, 120, 32, 140, 230, 122, 22, 40, 238, 220, 31, 139, 229, 121, 129, 131, 130</elem>
      <elem id="7">23, 41, 239, 221, 25, 43, 241, 223, 32, 140, 230, 122, 34, 142, 232, 124, 24, 42, 240, 222, 33, 141, 231, 123, 131, 133, 132</elem>
      <elem id="8">25, 43, 241, 223, 27, 45, 243, 225, 34, 142, 232, 124, 36, 144, 234, 126, 26, 44, 242, 224, 35, 143, 233, 125, 133, 135, 134</elem>
      <elem id="9">37, 55, 253, 235, 39, 57, 255, 237, 46, 154, 244, 136, 48, 156, 246, 138, 38, 56, 254, 236, 47, 155, 245, 137, 145, 147, 146</elem>
      <elem id="10">39, 57, 255, 237, 41, 59, 257, 239, 48, 156, 246, 138, 50, 158, 248, 140, 40, 58, 256, 238, 49, 157, 247, 139, 147, 149, 148</elem>
      <elem id="11">41, 59, 257, 239, 43, 61, 259, 241, 50, 158, 248, 140, 52, 160, 250, 142, 42, 60, 258, 240, 51, 159, 249, 141, 149, 151, 150</elem>
      <elem id="12">43, 61, 259, 241, 45, 63, 261, 243, 52, 160, 250, 142, 54, 162, 252, 144, 44, 62, 260, 242, 53, 161, 251, 143, 151, 153, 152</elem>
      <elem id="13">55, 73, 271, 253, 57, 75, 273, 255, 64, 172, 262, 154, 66, 174, 264, 156, 56, 74, 272, 254, 65, 173, 263, 155, 163, 165, 164</elem>
      <elem id="14">57, 75, 273, 255, 59, 77, 275, 257, 66, 174, 264, 156, 68, 176, 266, 158, 58, 76, 274, 256, 67, 175, 265, 157, 165, 167, 166</elem>
      <elem id="15">59, 77, 275, 257, 61, 79, 277, 259, 68, 176, 266, 158, 70, 178, 268, 160, 60, 78, 276, 258, 69, 177, 267, 159, 167, 169, 168</elem>
      <elem id="16">61, 79, 277, 259, 63, 81, 279, 261, 70, 178, 268, 160, 72, 180, 270, 162, 62, 80, 278, 260, 71, 179, 269, 161, 169, 171, 170</elem>
      <elem id="17">73, 91, 289, 271, 75, 93, 291, 273, 82, 190, 280, 172, 84, 192, 282, 174, 74, 92, 290, 272, 83, 191, 281, 173, 181, 183, 182</elem>
      <elem id="18">75, 93, 291, 273, 77, 95, 293, 275, 84, 192, 282, 174, 86, 194, 284, 176, 76, 94, 292, 274, 85, 193, 283, 175, 183, 185, 184</elem>
      <elem id="19">77, 95, 293, 275, 79, 97, 295, 277, 86, 194, 284, 176, 88, 196, 286, 178, 78, 96, 294, 276, 87, 195, 285, 177, 185, 187, 186</elem>
      <elem id="20">79, 97, 295, 277, 81, 99, 297, 279, 88, 196, 286, 178, 90, 198, 288, 180, 80, 98, 296, 278, 89, 197, 287, 179, 187, 189, 188</elem>
    </Elements>
    <NodeSet name="FixXs">
		91, 92, 93, 94, 95, 96, 97, 98, 99, 190, 191, 192, 193, 194, 195, 196, 197, 198, 289, 290, 291, 292, 293, 294, 295, 296, 297
	</NodeSet>
    <NodeSet name="FixYs">
		1, 2, 3, 4, 5, 6, 7, 8, 9, 100, 101, 102, 103, 104, 105, 106, 107, 108, 199, 200, 201, 202, 203, 204, 205, 206, 207
	</NodeSet>
    <Surface name="FixZs">
      <quad9 id="1">1, 3, 21, 19, 2, 12, 20, 10, 11</quad9>
      <quad9 id="2">199, 201, 219, 217, 200, 210, 218, 208, 209</quad9>
      <quad9 id="3">3, 5, 23, 21, 4, 14, 22, 12, 13</quad9>
      <quad9 id="4">201, 203, 221, 219, 202, 212, 220, 210, 211</quad9>
      <quad9 id="5">5, 7, 25, 23, 6, 16, 24, 14, 15</quad9>
      <quad9 id="6">203, 205, 223, 221, 204, 214, 222, 212, 213</quad9>
      <quad9 id="7">7, 9, 27, 25, 8, 18, 26, 16, 17</quad9>
      <quad9 id="8">205, 207, 225, 223, 206, 216, 224, 214, 215</quad9>
      <quad9 id="9">19, 21, 39, 37, 20, 30, 38, 28, 29</quad9>
      <quad9 id="10">217, 219, 237, 235, 218, 228, 236, 226, 227</quad9>
      <quad9 id="11">21, 23, 41, 39, 22, 32, 40, 30, 31</quad9>
      <quad9 id="12">219, 221, 239, 237, 220, 230, 238, 228, 229</quad9>
      <quad9 id="13">23, 25, 43, 41, 24, 34, 42, 32, 33</quad9>
      <quad9 id="14">221, 223, 241, 239, 222, 232, 240, 230, 231</quad9>
      <quad9 id="15">25, 27, 45, 43, 26, 36, 44, 34, 35</quad9>
      <quad9 id="16">223, 225, 243, 241, 224, 234, 242, 232, 233</quad9>
      <quad9 id="17">37, 39, 57, 55, 38, 48, 56, 46, 47</quad9>
      <quad9 id="18">235, 237, 255, 253, 236, 246, 254, 244, 245</quad9>
      <quad9 id="19">39, 41, 59, 57, 40, 50, 58, 48, 49</quad9>
      <quad9 id="20">237, 239, 257, 255, 238, 248, 256, 246, 247</quad9>
<!-- ... 20 like lines cut -->
    </Surface>
    <Surface name="PressureLoad1">
      <quad9 id="1">1, 199, 217, 19, 100, 208, 118, 10, 109</quad9>
      <quad9 id="2">19, 217, 235, 37, 118, 226, 136, 28, 127</quad9>
      <quad9 id="3">37, 235, 253, 55, 136, 244, 154, 46, 145</quad9>
      <quad9 id="4">55, 253, 271, 73, 154, 262, 172, 64, 163</quad9>
      <quad9 id="5">73, 271, 289, 91, 172, 280, 190, 82, 181</quad9>
    </Surface>
  </Mesh>
  <MeshDomains>
    <SolidDomain name="Part1" mat="Material1" type="three-field-solid">
      <laugon>1</laugon>
      <atol>1e-8</atol>
      <maxaug>10</maxaug>
    </SolidDomain>
  </MeshDomains>
  <Boundary>
    <bc name="FixYs" type="zero displacement" node_set="FixYs">
      <x_dof>0</x_dof>
      <y_dof>1</y_dof>
      <z_dof>0</z_dof>
    </bc>
    <bc name="FixZs" type="zero displacement" node_set="@surface:FixZs">
      <x_dof>0</x_dof>
      <y_dof>0</y_dof>
      <z_dof>1</z_dof>
    </bc>
    <bc name="FixXs" type="zero displacement" node_set="FixXs">
      <x_dof>1</x_dof>
      <y_dof>0</y_dof>
      <z_dof>0</z_dof>
    </bc>
  </Boundary>
  <Loads>
    <surface_load type="pressure" surface="PressureLoad1">
      <pressure lc="1">13.9868</pressure>
      <linear>0</linear>
      <symmetric_stiffness>0</symmetric_stiffness>
    </surface_load>
  </Loads>
  <LoadData>
    <load_controller id="1" type="loadcurve">
      <interpolate>LINEAR</interpolate>
      <points>
        <point>0,1.0</point>
        <point>1,1.0</point>
        <point>2,1.0</point>
        <point>3,1.0</point>
      </points>
    </load_controller>
  </LoadData>
  <Output>
    <plotfile type="vtk">
      <var type="displacement" />
      <var type="relative volume" />
      <var type="stress" />
      <var type="SPR stress" />
      <var type="Lagrange strain" />
      <var type="SPR principal stress" />
      <var type="strain energy density" />
      <var type="acceleration" />
      <var type="velocity" />
    </plotfile>
  </Output>
</febio_spec>