<?xml version="1.0" encoding="ISO-8859-1"?>
<febio_spec version="3.0">
    <Module type="solid"/>
	<Control>
		<analysis>STATIC</analysis>
		<time_steps>10</time_steps>
		<step_size>1</step_size>
		<solver>
			<diverge_reform>1</diverge_reform>
			<reform_each_time_step>1</reform_each_time_step>
	        <dtol>0</dtol>
	        <etol>1e-16</etol>
	        <rtol>1e-16</rtol>
			<lstol>0.0</lstol>
			<min_residual>1e-20</min_residual>
            <qn_method type="Broyden"/>
                <max_refs>1000</max_refs>
                <max_ups>0</max_ups>
            <symmetric_stiffness>0</symmetric_stiffness>
		</solver>
	</Control>
    <Globals>
        <Constants>
            <T>0</T>
            <R>0</R>
            <Fc>0</Fc>
        </Constants>
    </Globals>
    <Material>
        <material id="1" name="Material1" type="FSG">
            <density>1</density>
		 	<k>1000000.0</k>
        </material>
    </Material>
<Geometry>
	<Nodes name="Object01">
		<node id="1">0.647, 0.0, -0.03235</node>
		<node id="2">0.6521250000000001, 0.0, -0.03235</node>
		<node id="3">0.65725, 0.0, -0.03235</node>
		<node id="4">0.662375, 0.0, -0.03235</node>
		<node id="5">0.6675, 0.0, -0.03235</node>
		<node id="6">0.672625, 0.0, -0.03235</node>
		<node id="7">0.6777500000000001, 0.0, -0.03235</node>
		<node id="8">0.682875, 0.0, -0.03235</node>
		<node id="9">0.6880000000000001, 0.0, -0.03235</node>
		<node id="10">0.6311667830214822, 0.0999669976802955, -0.03235</node>
		<node id="11">0.6361663653444887, 0.10075885372838131, -0.03235</node>
		<node id="12">0.6411659476674949, 0.1015507097764671, -0.03235</node>
		<node id="13">0.6461655299905013, 0.10234256582455292, -0.03235</node>
		<node id="14">0.6511651123135075, 0.10313442187263872, -0.03235</node>
		<node id="15">0.6561646946365138, 0.10392627792072452, -0.03235</node>
		<node id="16">0.6611642769595203, 0.10471813396881033, -0.03235</node>
		<node id="17">0.6661638592825265, 0.10550999001689612, -0.03235</node>
		<node id="18">0.671163441605533, 0.10630184606498193, -0.03235</node>
		<node id="19">0.6153335660429644, 0.199933995360591, -0.03235</node>
		<node id="20">0.6202077306889772, 0.20151770745676262, -0.03235</node>
<!-- ... 1087 like lines cut -->
	</Nodes>
	<Elements type="hex20" mat="1" name="Part1">
		<elem id="1">1, 19, 757, 739, 3, 21, 759, 741, 10, 388, 748, 370, 12, 390, 750, 372, 2, 20, 758, 740</elem>
		<elem id="2">3, 21, 759, 741, 5, 23, 761, 743, 12, 390, 750, 372, 14, 392, 752, 374, 4, 22, 760, 742</elem>
		<elem id="3">5, 23, 761, 743, 7, 25, 763, 745, 14, 392, 752, 374, 16, 394, 754, 376, 6, 24, 762, 744</elem>
		<elem id="4">7, 25, 763, 745, 9, 27, 765, 747, 16, 394, 754, 376, 18, 396, 756, 378, 8, 26, 764, 746</elem>
		<elem id="5">19, 37, 775, 757, 21, 39, 777, 759, 28, 406, 766, 388, 30, 408, 768, 390, 20, 38, 776, 758</elem>
		<elem id="6">21, 39, 777, 759, 23, 41, 779, 761, 30, 408, 768, 390, 32, 410, 770, 392, 22, 40, 778, 760</elem>
		<elem id="7">23, 41, 779, 761, 25, 43, 781, 763, 32, 410, 770, 392, 34, 412, 772, 394, 24, 42, 780, 762</elem>
		<elem id="8">25, 43, 781, 763, 27, 45, 783, 765, 34, 412, 772, 394, 36, 414, 774, 396, 26, 44, 782, 764</elem>
		<elem id="9">37, 55, 793, 775, 39, 57, 795, 777, 46, 424, 784, 406, 48, 426, 786, 408, 38, 56, 794, 776</elem>
		<elem id="10">39, 57, 795, 777, 41, 59, 797, 779, 48, 426, 786, 408, 50, 428, 788, 410, 40, 58, 796, 778</elem>
		<elem id="11">41, 59, 797, 779, 43, 61, 799, 781, 50, 428, 788, 410, 52, 430, 790, 412, 42, 60, 798, 780</elem>
		<elem id="12">43, 61, 799, 781, 45, 63, 801, 783, 52, 430, 790, 412, 54, 432, 792, 414, 44, 62, 800, 782</elem>
		<elem id="13">55, 73, 811, 793, 57, 75, 813, 795, 64, 442, 802, 424, 66, 444, 804, 426, 56, 74, 812, 794</elem>
		<elem id="14">57, 75, 813, 795, 59, 77, 815, 797, 66, 444, 804, 426, 68, 446, 806, 428, 58, 76, 814, 796</elem>
		<elem id="15">59, 77, 815, 797, 61, 79, 817, 799, 68, 446, 806, 428, 70, 448, 808, 430, 60, 78, 816, 798</elem>
		<elem id="16">61, 79, 817, 799, 63, 81, 819, 801, 70, 448, 808, 430, 72, 450, 810, 432, 62, 80, 818, 800</elem>
		<elem id="17">73, 91, 829, 811, 75, 93, 831, 813, 82, 460, 820, 442, 84, 462, 822, 444, 74, 92, 830, 812</elem>
		<elem id="18">75, 93, 831, 813, 77, 95, 833, 815, 84, 462, 822, 444, 86, 464, 824, 446, 76, 94, 832, 814</elem>
		<elem id="19">77, 95, 833, 815, 79, 97, 835, 817, 86, 464, 824, 446, 88, 466, 826, 448, 78, 96, 834, 816</elem>
		<elem id="20">79, 97, 835, 817, 81, 99, 837, 819, 88, 466, 826, 448, 90, 468, 828, 450, 80, 98, 836, 818</elem>
<!-- ... 60 like lines cut -->
	</Elements>
	<NodeSet name="FixXs">
		<node id="91"/>
		<node id="271"/>
		<node id="460"/>
		<node id="640"/>
		<node id="829"/>
		<node id="1009"/>
	</NodeSet>
	<NodeSet name="FixYs">
		<quad8 id="1"/>
		<quad8 id="181"/>
		<quad8 id="370"/>
		<quad8 id="550"/>
		<quad8 id="739"/>
		<quad8 id="919"/>
	</NodeSet>
	<Surface name="FixZs">
		<quad8 id="1">1, 3, 21, 19, 2, 12, 20, 10</quad8>
		<quad8 id="2">739, 741, 759, 757, 740, 750, 758, 748</quad8>
		<quad8 id="3">3, 5, 23, 21, 4, 14, 22, 12</quad8>
		<quad8 id="4">741, 743, 761, 759, 742, 752, 760, 750</quad8>
		<quad8 id="5">5, 7, 25, 23, 6, 16, 24, 14</quad8>
		<quad8 id="6">743, 745, 763, 761, 744, 754, 762, 752</quad8>
		<quad8 id="7">7, 9, 27, 25, 8, 18, 26, 16</quad8>
		<quad8 id="8">745, 747, 765, 763, 746, 756, 764, 754</quad8>
		<quad8 id="9">19, 21, 39, 37, 20, 30, 38, 28</quad8>
		<quad8 id="10">757, 759, 777, 775, 758, 768, 776, 766</quad8>
		<quad8 id="11">21, 23, 41, 39, 22, 32, 40, 30</quad8>
		<quad8 id="12">759, 761, 779, 777, 760, 770, 778, 768</quad8>
		<quad8 id="13">23, 25, 43, 41, 24, 34, 42, 32</quad8>
		<quad8 id="14">761, 763, 781, 779, 762, 772, 780, 770</quad8>
		<quad8 id="15">25, 27, 45, 43, 26, 36, 44, 34</quad8>
		<quad8 id="16">763, 765, 783, 781, 764, 774, 782, 772</quad8>
		<quad8 id="17">37, 39, 57, 55, 38, 48, 56, 46</quad8>
		<quad8 id="18">775, 777, 795, 793, 776, 786, 794, 784</quad8>
		<quad8 id="19">39, 41, 59, 57, 40, 50, 58, 48</quad8>
		<quad8 id="20">777, 779, 797, 795, 778, 788, 796, 786</quad8>
<!-- ... 140 like lines cut -->
	</Surface>
	<Surface name="PressureLoad1">
		<quad8 id="1">1, 739, 757, 19, 370, 748, 388, 10</quad8>
		<quad8 id="2">19, 757, 775, 37, 388, 766, 406, 28</quad8>
		<quad8 id="3">37, 775, 793, 55, 406, 784, 424, 46</quad8>
		<quad8 id="4">55, 793, 811, 73, 424, 802, 442, 64</quad8>
		<quad8 id="5">73, 811, 829, 91, 442, 820, 460, 82</quad8>
		<quad8 id="6">91, 829, 847, 109, 460, 838, 478, 100</quad8>
		<quad8 id="7">109, 847, 865, 127, 478, 856, 496, 118</quad8>
		<quad8 id="8">127, 865, 883, 145, 496, 874, 514, 136</quad8>
		<quad8 id="9">145, 883, 901, 163, 514, 892, 532, 154</quad8>
		<quad8 id="10">163, 901, 919, 181, 532, 910, 550, 172</quad8>
		<quad8 id="11">181, 919, 937, 199, 550, 928, 568, 190</quad8>
		<quad8 id="12">199, 937, 955, 217, 568, 946, 586, 208</quad8>
		<quad8 id="13">217, 955, 973, 235, 586, 964, 604, 226</quad8>
		<quad8 id="14">235, 973, 991, 253, 604, 982, 622, 244</quad8>
		<quad8 id="15">253, 991, 1009, 271, 622, 1000, 640, 262</quad8>
		<quad8 id="16">271, 1009, 1027, 289, 640, 1018, 658, 280</quad8>
		<quad8 id="17">289, 1027, 1045, 307, 658, 1036, 676, 298</quad8>
		<quad8 id="18">307, 1045, 1063, 325, 676, 1054, 694, 316</quad8>
		<quad8 id="19">325, 1063, 1081, 343, 694, 1072, 712, 334</quad8>
		<quad8 id="20">343, 1081, 739, 1, 712, 1090, 370, 352</quad8>
	</Surface>
</Geometry>


	<Boundary>
		<bc name="FixXs" type="fix" node_set="FixXs">
			<dofs>x</dofs>
		</bc>
		<bc name="FixYs" type="fix" node_set="FixYs">
			<dofs>y</dofs>
		</bc>
		<bc name="FixZs" type="fix" node_set="@surface:FixZs">
			<dofs>z</dofs>
		</bc>
	</Boundary>
	<MeshData>

	<ElementData var="mat_axis" elem_set="Part1">
		<elem lid="1">
			<a>0.9876883405951377, 0.15643446504023087, 0</a>
			<d>-0.15643446504023087, 0.9876883405951377, 0</d>
		</elem>
		<elem lid="2">
			<a>0.9876883405951377, 0.15643446504023087, 0</a>
			<d>-0.15643446504023087, 0.9876883405951377, 0</d>
		</elem>
		<elem lid="3">
			<a>0.9876883405951377, 0.15643446504023087, 0</a>
			<d>-0.15643446504023087, 0.9876883405951377, 0</d>
		</elem>
		<elem lid="4">
			<a>0.9876883405951377, 0.15643446504023087, 0</a>
			<d>-0.15643446504023087, 0.9876883405951377, 0</d>
		</elem>
		<elem lid="5">
			<a>0.8910065241883677, 0.45399049973954675, 0</a>
			<d>-0.45399049973954675, 0.8910065241883677, 0</d>
		</elem>
		<elem lid="6">
			<a>0.8910065241883677, 0.45399049973954675, 0</a>
			<d>-0.45399049973954675, 0.8910065241883677, 0</d>
		</elem>
		<elem lid="7">
			<a>0.8910065241883677, 0.45399049973954675, 0</a>
			<d>-0.45399049973954675, 0.8910065241883677, 0</d>
		</elem>
		<elem lid="8">
			<a>0.8910065241883677, 0.45399049973954675, 0</a>
			<d>-0.45399049973954675, 0.8910065241883677, 0</d>
		</elem>
		<elem lid="9">
			<a>0.7071067811865477, 0.7071067811865476, 0</a>
			<d>-0.7071067811865476, 0.7071067811865477, 0</d>
		</elem>
		<elem lid="10">
			<a>0.7071067811865477, 0.7071067811865476, 0</a>
			<d>-0.7071067811865476, 0.7071067811865477, 0</d>
		</elem>
		<elem lid="11">
			<a>0.7071067811865477, 0.7071067811865476, 0</a>
			<d>-0.7071067811865476, 0.7071067811865477, 0</d>
		</elem>
		<elem lid="12">
			<a>0.7071067811865477, 0.7071067811865476, 0</a>
			<d>-0.7071067811865476, 0.7071067811865477, 0</d>
		</elem>
		<elem lid="13">
			<a>0.4539904997395468, 0.8910065241883677, 0</a>
			<d>-0.8910065241883677, 0.4539904997395468, 0</d>
		</elem>
		<elem lid="14">
			<a>0.4539904997395468, 0.8910065241883677, 0</a>
			<d>-0.8910065241883677, 0.4539904997395468, 0</d>
		</elem>
		<elem lid="15">
			<a>0.4539904997395468, 0.8910065241883677, 0</a>
			<d>-0.8910065241883677, 0.4539904997395468, 0</d>
		</elem>
		<elem lid="16">
			<a>0.4539904997395468, 0.8910065241883677, 0</a>
			<d>-0.8910065241883677, 0.4539904997395468, 0</d>
		</elem>
		<elem lid="17">
			<a>0.15643446504023092, 0.9876883405951377, 0</a>
			<d>-0.9876883405951377, 0.15643446504023092, 0</d>
		</elem>
		<elem lid="18">
			<a>0.15643446504023092, 0.9876883405951377, 0</a>
			<d>-0.9876883405951377, 0.15643446504023092, 0</d>
		</elem>
		<elem lid="19">
			<a>0.15643446504023092, 0.9876883405951377, 0</a>
			<d>-0.9876883405951377, 0.15643446504023092, 0</d>
		</elem>
		<elem lid="20">
			<a>0.15643446504023092, 0.9876883405951377, 0</a>
			<d>-0.9876883405951377, 0.15643446504023092, 0</d>
		</elem>
		<elem lid="21">
			<a>-0.1564344650402306, 0.9876883405951378, 0</a>
			<d>-0.9876883405951378, -0.1564344650402306, 0</d>
		</elem>
		<elem lid="22">
			<a>-0.1564344650402306, 0.9876883405951378, 0</a>
			<d>-0.9876883405951378, -0.1564344650402306, 0</d>
		</elem>
		<elem lid="23">
			<a>-0.1564344650402306, 0.9876883405951378, 0</a>
			<d>-0.9876883405951378, -0.1564344650402306, 0</d>
		</elem>
		<elem lid="24">
			<a>-0.1564344650402306, 0.9876883405951378, 0</a>
			<d>-0.9876883405951378, -0.1564344650402306, 0</d>
		</elem>
		<elem lid="25">
			<a>-0.4539904997395467, 0.8910065241883678, 0</a>
			<d>-0.8910065241883678, -0.4539904997395467, 0</d>
		</elem>
		<elem lid="26">
			<a>-0.4539904997395467, 0.8910065241883678, 0</a>
			<d>-0.8910065241883678, -0.4539904997395467, 0</d>
		</elem>
		<elem lid="27">
			<a>-0.4539904997395467, 0.8910065241883678, 0</a>
			<d>-0.8910065241883678, -0.4539904997395467, 0</d>
		</elem>
		<elem lid="28">
			<a>-0.4539904997395467, 0.8910065241883678, 0</a>
			<d>-0.8910065241883678, -0.4539904997395467, 0</d>
		</elem>
		<elem lid="29">
			<a>-0.7071067811865475, 0.7071067811865477, 0</a>
			<d>-0.7071067811865477, -0.7071067811865475, 0</d>
		</elem>
		<elem lid="30">
			<a>-0.7071067811865475, 0.7071067811865477, 0</a>
			<d>-0.7071067811865477, -0.7071067811865475, 0</d>
		</elem>
		<elem lid="31">
			<a>-0.7071067811865475, 0.7071067811865477, 0</a>
			<d>-0.7071067811865477, -0.7071067811865475, 0</d>
		</elem>
		<elem lid="32">
			<a>-0.7071067811865475, 0.7071067811865477, 0</a>
			<d>-0.7071067811865477, -0.7071067811865475, 0</d>
		</elem>
		<elem lid="33">
			<a>-0.8910065241883677, 0.45399049973954686, 0</a>
			<d>-0.45399049973954686, -0.8910065241883677, 0</d>
		</elem>
		<elem lid="34">
			<a>-0.8910065241883677, 0.45399049973954686, 0</a>
			<d>-0.45399049973954686, -0.8910065241883677, 0</d>
		</elem>
		<elem lid="35">
			<a>-0.8910065241883677, 0.45399049973954686, 0</a>
			<d>-0.45399049973954686, -0.8910065241883677, 0</d>
		</elem>
		<elem lid="36">
			<a>-0.8910065241883677, 0.45399049973954686, 0</a>
			<d>-0.45399049973954686, -0.8910065241883677, 0</d>
		</elem>
		<elem lid="37">
			<a>-0.9876883405951377, 0.15643446504023098, 0</a>
			<d>-0.15643446504023098, -0.9876883405951377, 0</d>
		</elem>
		<elem lid="38">
			<a>-0.9876883405951377, 0.15643446504023098, 0</a>
			<d>-0.15643446504023098, -0.9876883405951377, 0</d>
		</elem>
		<elem lid="39">
			<a>-0.9876883405951377, 0.15643446504023098, 0</a>
			<d>-0.15643446504023098, -0.9876883405951377, 0</d>
		</elem>
		<elem lid="40">
			<a>-0.9876883405951377, 0.15643446504023098, 0</a>
			<d>-0.15643446504023098, -0.9876883405951377, 0</d>
		</elem>
		<elem lid="41">
			<a>-0.9876883405951377, -0.15643446504023076, 0</a>
			<d>0.15643446504023076, -0.9876883405951377, 0</d>
		</elem>
		<elem lid="42">
			<a>-0.9876883405951377, -0.15643446504023076, 0</a>
			<d>0.15643446504023076, -0.9876883405951377, 0</d>
		</elem>
		<elem lid="43">
			<a>-0.9876883405951377, -0.15643446504023076, 0</a>
			<d>0.15643446504023076, -0.9876883405951377, 0</d>
		</elem>
		<elem lid="44">
			<a>-0.9876883405951377, -0.15643446504023076, 0</a>
			<d>0.15643446504023076, -0.9876883405951377, 0</d>
		</elem>
		<elem lid="45">
			<a>-0.8910065241883678, -0.45399049973954664, 0</a>
			<d>0.45399049973954664, -0.8910065241883678, 0</d>
		</elem>
		<elem lid="46">
			<a>-0.8910065241883678, -0.45399049973954664, 0</a>
			<d>0.45399049973954664, -0.8910065241883678, 0</d>
		</elem>
		<elem lid="47">
			<a>-0.8910065241883678, -0.45399049973954664, 0</a>
			<d>0.45399049973954664, -0.8910065241883678, 0</d>
		</elem>
		<elem lid="48">
			<a>-0.8910065241883678, -0.45399049973954664, 0</a>
			<d>0.45399049973954664, -0.8910065241883678, 0</d>
		</elem>
		<elem lid="49">
			<a>-0.7071067811865477, -0.7071067811865475, 0</a>
			<d>0.7071067811865475, -0.7071067811865477, 0</d>
		</elem>
		<elem lid="50">
			<a>-0.7071067811865477, -0.7071067811865475, 0</a>
			<d>0.7071067811865475, -0.7071067811865477, 0</d>
		</elem>
		<elem lid="51">
			<a>-0.7071067811865477, -0.7071067811865475, 0</a>
			<d>0.7071067811865475, -0.7071067811865477, 0</d>
		</elem>
		<elem lid="52">
			<a>-0.7071067811865477, -0.7071067811865475, 0</a>
			<d>0.7071067811865475, -0.7071067811865477, 0</d>
		</elem>
		<elem lid="53">
			<a>-0.4539904997395469, -0.8910065241883676, 0</a>
			<d>0.8910065241883676, -0.4539904997395469, 0</d>
		</elem>
		<elem lid="54">
			<a>-0.4539904997395469, -0.8910065241883676, 0</a>
			<d>0.8910065241883676, -0.4539904997395469, 0</d>
		</elem>
		<elem lid="55">
			<a>-0.4539904997395469, -0.8910065241883676, 0</a>
			<d>0.8910065241883676, -0.4539904997395469, 0</d>
		</elem>
		<elem lid="56">
			<a>-0.4539904997395469, -0.8910065241883676, 0</a>
			<d>0.8910065241883676, -0.4539904997395469, 0</d>
		</elem>
		<elem lid="57">
			<a>-0.15643446504023106, -0.9876883405951375, 0</a>
			<d>0.9876883405951375, -0.15643446504023106, 0</d>
		</elem>
		<elem lid="58">
			<a>-0.15643446504023106, -0.9876883405951375, 0</a>
			<d>0.9876883405951375, -0.15643446504023106, 0</d>
		</elem>
		<elem lid="59">
			<a>-0.15643446504023106, -0.9876883405951375, 0</a>
			<d>0.9876883405951375, -0.15643446504023106, 0</d>
		</elem>
		<elem lid="60">
			<a>-0.15643446504023106, -0.9876883405951375, 0</a>
			<d>0.9876883405951375, -0.15643446504023106, 0</d>
		</elem>
		<elem lid="61">
			<a>0.15643446504023067, -0.9876883405951377, 0</a>
			<d>0.9876883405951377, 0.15643446504023067, 0</d>
		</elem>
		<elem lid="62">
			<a>0.15643446504023067, -0.9876883405951377, 0</a>
			<d>0.9876883405951377, 0.15643446504023067, 0</d>
		</elem>
		<elem lid="63">
			<a>0.15643446504023067, -0.9876883405951377, 0</a>
			<d>0.9876883405951377, 0.15643446504023067, 0</d>
		</elem>
		<elem lid="64">
			<a>0.15643446504023067, -0.9876883405951377, 0</a>
			<d>0.9876883405951377, 0.15643446504023067, 0</d>
		</elem>
		<elem lid="65">
			<a>0.4539904997395466, -0.8910065241883678, 0</a>
			<d>0.8910065241883678, 0.4539904997395466, 0</d>
		</elem>
		<elem lid="66">
			<a>0.4539904997395466, -0.8910065241883678, 0</a>
			<d>0.8910065241883678, 0.4539904997395466, 0</d>
		</elem>
		<elem lid="67">
			<a>0.4539904997395466, -0.8910065241883678, 0</a>
			<d>0.8910065241883678, 0.4539904997395466, 0</d>
		</elem>
		<elem lid="68">
			<a>0.4539904997395466, -0.8910065241883678, 0</a>
			<d>0.8910065241883678, 0.4539904997395466, 0</d>
		</elem>
		<elem lid="69">
			<a>0.7071067811865474, -0.7071067811865477, 0</a>
			<d>0.7071067811865477, 0.7071067811865474, 0</d>
		</elem>
		<elem lid="70">
			<a>0.7071067811865474, -0.7071067811865477, 0</a>
			<d>0.7071067811865477, 0.7071067811865474, 0</d>
		</elem>
		<elem lid="71">
			<a>0.7071067811865474, -0.7071067811865477, 0</a>
			<d>0.7071067811865477, 0.7071067811865474, 0</d>
		</elem>
		<elem lid="72">
			<a>0.7071067811865474, -0.7071067811865477, 0</a>
			<d>0.7071067811865477, 0.7071067811865474, 0</d>
		</elem>
		<elem lid="73">
			<a>0.8910065241883676, -0.45399049973954697, 0</a>
			<d>0.45399049973954697, 0.8910065241883676, 0</d>
		</elem>
		<elem lid="74">
			<a>0.8910065241883676, -0.45399049973954697, 0</a>
			<d>0.45399049973954697, 0.8910065241883676, 0</d>
		</elem>
		<elem lid="75">
			<a>0.8910065241883676, -0.45399049973954697, 0</a>
			<d>0.45399049973954697, 0.8910065241883676, 0</d>
		</elem>
		<elem lid="76">
			<a>0.8910065241883676, -0.45399049973954697, 0</a>
			<d>0.45399049973954697, 0.8910065241883676, 0</d>
		</elem>
		<elem lid="77">
			<a>0.9876883405951375, -0.15643446504023112, 0</a>
			<d>0.15643446504023112, 0.9876883405951375, 0</d>
		</elem>
		<elem lid="78">
			<a>0.9876883405951375, -0.15643446504023112, 0</a>
			<d>0.15643446504023112, 0.9876883405951375, 0</d>
		</elem>
		<elem lid="79">
			<a>0.9876883405951375, -0.15643446504023112, 0</a>
			<d>0.15643446504023112, 0.9876883405951375, 0</d>
		</elem>
		<elem lid="80">
			<a>0.9876883405951375, -0.15643446504023112, 0</a>
			<d>0.15643446504023112, 0.9876883405951375, 0</d>
		</elem>
	</ElementData>


	</MeshData>
    <Loads>
        <surface_load type="pressure" surface="PressureLoad1">
            <pressure lc="1">13.9868</pressure>
            <linear>0</linear>
            <symmetric_stiffness>0</symmetric_stiffness>
        </surface_load>
    </Loads>
	<LoadData>
		<load_controller id="1" type="loadcurve">
			<interpolate>LINEAR</interpolate>
			<points>
				<point>0,1</point>
				<point>10,20</point>
			</points>
		</load_controller>
	</LoadData>
    <Output>
        <plotfile type="vtk">
            <var type="displacement"/>
            <var type="relative volume"/>
            <var type="stress"/>
			<var type="SPR stress"/>
			<var type="Lagrange strain"/>
			<var type="SPR principal stress"/>
            <var type="strain energy density"/>
            <var type="acceleration"/>
			<var type="velocity"/>
        </plotfile>
    </Output>
</febio_spec>