<?xml version="1.0" encoding="ISO-8859-1"?>
<febio_spec version="3.0">
    <Module type="solid"/>
	<Control>
		<analysis>STATIC</analysis>
		<time_steps>10</time_steps>
		<step_size>1</step_size>
		<solver>
			<diverge_reform>1</diverge_reform>
			<reform_each_time_step>1</reform_each_time_step>
	        <dtol>0</dtol>
	        <etol>1e-16</etol>
	        <rtol>1e-16</rtol>
			<lstol>0.0</lstol>
			<min_residual>1e-20</min_residual>
            <qn_method type="Broyden"/>
                <max_refs>1000</max_refs>
                <max_ups>0</max_ups>
            <symmetric_stiffness>0</symmetric_stiffness>
		</solver>
	</Control>
    <Globals>
        <Constants>
            <T>0</T>
            <R>0</R>
            <Fc>0</Fc>
        </Constants>
    </Globals>
    <Material>
        <material id="1" name="Material1" type="FSG">
            <density>1</density>
		 	<k>100000.0</k>
		 	<dt>1.0</dt>
        </material>
    </Material>
<Geometry>
	<Nodes name="Object01">
		<node id="1">0.6468, 0.0, -0.0201</node>
		<node id="2">0.65685, 0.0, -0.0201</node>
		<node id="3">0.6669, 0.0, -0.0201</node>
		<node id="4">0.67695, 0.0, -0.0201</node>
		<node id="5">0.687, 0.0, -0.0201</node>
		<node id="6">0.6459135830792585, 0.03385089649793607, -0.0201</node>
		<node id="7">0.6559498099035419, 0.03437687285817766, -0.0201</node>
		<node id="8">0.6659860367278254, 0.03490284921841924, -0.0201</node>
		<node id="9">0.6760222635521089, 0.035428825578660825, -0.0201</node>
		<node id="10">0.6860584903763923, 0.035954801938902416, -0.0201</node>
		<node id="11">0.6432567619241992, 0.06760901004151827, -0.0201</node>
		<node id="12">0.6532517069726503, 0.06865952109735819, -0.0201</node>
		<node id="13">0.6632466520211016, 0.0697100321531981, -0.0201</node>
		<node id="14">0.6732415970695527, 0.07076054320903802, -0.0201</node>
		<node id="15">0.6832365421180038, 0.07181105426487794, -0.0201</node>
		<node id="16">0.6388368186969351, 0.10118181198802133, -0.0201</node>
		<node id="17">0.6487630865199162, 0.10275397836167566, -0.0201</node>
		<node id="18">0.6586893543428973, 0.10432614473532997, -0.0201</node>
		<node id="19">0.6686156221658784, 0.10589831110898429, -0.0201</node>
		<node id="20">0.6785418899888597, 0.10747047748263862, -0.0201</node>
<!-- ... 1190 like lines cut -->
	</Nodes>
	<Elements type="hex8" mat="1" name="Part1">
		<elem id="1">1, 6, 611, 606, 2, 7, 612, 607</elem>
		<elem id="2">2, 7, 612, 607, 3, 8, 613, 608</elem>
		<elem id="3">3, 8, 613, 608, 4, 9, 614, 609</elem>
		<elem id="4">4, 9, 614, 609, 5, 10, 615, 610</elem>
		<elem id="5">6, 11, 616, 611, 7, 12, 617, 612</elem>
		<elem id="6">7, 12, 617, 612, 8, 13, 618, 613</elem>
		<elem id="7">8, 13, 618, 613, 9, 14, 619, 614</elem>
		<elem id="8">9, 14, 619, 614, 10, 15, 620, 615</elem>
		<elem id="9">11, 16, 621, 616, 12, 17, 622, 617</elem>
		<elem id="10">12, 17, 622, 617, 13, 18, 623, 618</elem>
		<elem id="11">13, 18, 623, 618, 14, 19, 624, 619</elem>
		<elem id="12">14, 19, 624, 619, 15, 20, 625, 620</elem>
		<elem id="13">16, 21, 626, 621, 17, 22, 627, 622</elem>
		<elem id="14">17, 22, 627, 622, 18, 23, 628, 623</elem>
		<elem id="15">18, 23, 628, 623, 19, 24, 629, 624</elem>
		<elem id="16">19, 24, 629, 624, 20, 25, 630, 625</elem>
		<elem id="17">21, 26, 631, 626, 22, 27, 632, 627</elem>
		<elem id="18">22, 27, 632, 627, 23, 28, 633, 628</elem>
		<elem id="19">23, 28, 633, 628, 24, 29, 634, 629</elem>
		<elem id="20">24, 29, 634, 629, 25, 30, 635, 630</elem>
<!-- ... 460 like lines cut -->
	</Elements>
	<NodeSet name="FixXs">
		<node id="151"/>
		<node id="451"/>
		<node id="756"/>
		<node id="1056"/>
	</NodeSet>
	<NodeSet name="FixYs">
		<node id="1"/>
		<node id="301"/>
		<node id="606"/>
		<node id="906"/>
	</NodeSet>
	<Surface name="FixZs">
		<quad4 id="1">1, 2, 7, 6</quad4>
		<quad4 id="2">606, 607, 612, 611</quad4>
		<quad4 id="3">2, 3, 8, 7</quad4>
		<quad4 id="4">607, 608, 613, 612</quad4>
		<quad4 id="5">3, 4, 9, 8</quad4>
		<quad4 id="6">608, 609, 614, 613</quad4>
		<quad4 id="7">4, 5, 10, 9</quad4>
		<quad4 id="8">609, 610, 615, 614</quad4>
		<quad4 id="9">6, 7, 12, 11</quad4>
		<quad4 id="10">611, 612, 617, 616</quad4>
		<quad4 id="11">7, 8, 13, 12</quad4>
		<quad4 id="12">612, 613, 618, 617</quad4>
		<quad4 id="13">8, 9, 14, 13</quad4>
		<quad4 id="14">613, 614, 619, 618</quad4>
		<quad4 id="15">9, 10, 15, 14</quad4>
		<quad4 id="16">614, 615, 620, 619</quad4>
		<quad4 id="17">11, 12, 17, 16</quad4>
		<quad4 id="18">616, 617, 622, 621</quad4>
		<quad4 id="19">12, 13, 18, 17</quad4>
		<quad4 id="20">617, 618, 623, 622</quad4>
<!-- ... 940 like lines cut -->
	</Surface>
	<Surface name="PressureLoad1">
		<quad4 id="1">1, 606, 611, 6</quad4>
		<quad4 id="2">6, 611, 616, 11</quad4>
		<quad4 id="3">11, 616, 621, 16</quad4>
		<quad4 id="4">16, 621, 626, 21</quad4>
		<quad4 id="5">21, 626, 631, 26</quad4>
		<quad4 id="6">26, 631, 636, 31</quad4>
		<quad4 id="7">31, 636, 641, 36</quad4>
		<quad4 id="8">36, 641, 646, 41</quad4>
		<quad4 id="9">41, 646, 651, 46</quad4>
		<quad4 id="10">46, 651, 656, 51</quad4>
		<quad4 id="11">51, 656, 661, 56</quad4>
		<quad4 id="12">56, 661, 666, 61</quad4>
		<quad4 id="13">61, 666, 671, 66</quad4>
		<quad4 id="14">66, 671, 676, 71</quad4>
		<quad4 id="15">71, 676, 681, 76</quad4>
		<quad4 id="16">76, 681, 686, 81</quad4>
		<quad4 id="17">81, 686, 691, 86</quad4>
		<quad4 id="18">86, 691, 696, 91</quad4>
		<quad4 id="19">91, 696, 701, 96</quad4>
		<quad4 id="20">96, 701, 706, 101</quad4>
<!-- ... 100 like lines cut -->
	</Surface>
</Geometry>

	<Boundary>
        <bc name="FixedDisplacement1" type="fix" node_set="FixXs">
            <dofs>x</dofs>
        </bc>
        <bc name="FixedDisplacement2" type="fix" node_set="FixYs">
            <dofs>y</dofs>
        </bc>
        <bc name="FixedDisplacement3" type="fix" node_set="@surface:FixZs">
            <dofs>z</dofs>
        </bc>
	</Boundary>
	<MeshData>
		
	<ElementData var="mat_axis" elem_set="Part1">
		<elem lid="1">
			<a>0.9996573249755575, 0.02617694830787315, 0</a>
			<d>-0.02617694830787315, 0.9996573249755575, 0</d>
		</elem>
		<elem lid="2">
			<a>0.9996573249755575, 0.02617694830787315, 0</a>
			<d>-0.02617694830787315, 0.9996573249755575, 0</d>
		</elem>
		<elem lid="3">
			<a>0.9996573249755575, 0.02617694830787315, 0</a>
			<d>-0.02617694830787315, 0.9996573249755575, 0</d>
		</elem>
		<elem lid="4">
			<a>0.9996573249755575, 0.02617694830787315, 0</a>
			<d>-0.02617694830787315, 0.9996573249755575, 0</d>
		</elem>
		<elem lid="5">
			<a>0.9969173337331279, 0.07845909572784494, 0</a>
			<d>-0.07845909572784494, 0.9969173337331279, 0</d>
		</elem>
		<elem lid="6">
			<a>0.9969173337331279, 0.07845909572784494, 0</a>
			<d>-0.07845909572784494, 0.9969173337331279, 0</d>
		</elem>
		<elem lid="7">
			<a>0.9969173337331279, 0.07845909572784494, 0</a>
			<d>-0.07845909572784494, 0.9969173337331279, 0</d>
		</elem>
		<elem lid="8">
			<a>0.9969173337331279, 0.07845909572784494, 0</a>
			<d>-0.07845909572784494, 0.9969173337331279, 0</d>
		</elem>
		<elem lid="9">
			<a>0.9914448613738102, 0.13052619222005157, 0</a>
			<d>-0.13052619222005157, 0.9914448613738102, 0</d>
		</elem>
		<elem lid="10">
			<a>0.9914448613738102, 0.13052619222005157, 0</a>
			<d>-0.13052619222005157, 0.9914448613738102, 0</d>
		</elem>
		<elem lid="11">
			<a>0.9914448613738102, 0.13052619222005157, 0</a>
			<d>-0.13052619222005157, 0.9914448613738102, 0</d>
		</elem>
		<elem lid="12">
			<a>0.9914448613738102, 0.13052619222005157, 0</a>
			<d>-0.13052619222005157, 0.9914448613738102, 0</d>
		</elem>
		<elem lid="13">
			<a>0.9832549075639546, 0.18223552549214747, 0</a>
			<d>-0.18223552549214747, 0.9832549075639546, 0</d>
		</elem>
		<elem lid="14">
			<a>0.9832549075639546, 0.18223552549214747, 0</a>
			<d>-0.18223552549214747, 0.9832549075639546, 0</d>
		</elem>
		<elem lid="15">
			<a>0.9832549075639546, 0.18223552549214747, 0</a>
			<d>-0.18223552549214747, 0.9832549075639546, 0</d>
		</elem>
		<elem lid="16">
			<a>0.9832549075639546, 0.18223552549214747, 0</a>
			<d>-0.18223552549214747, 0.9832549075639546, 0</d>
		</elem>
		<elem lid="17">
			<a>0.9723699203976768, 0.23344536385590545, 0</a>
			<d>-0.23344536385590545, 0.9723699203976768, 0</d>
		</elem>
		<elem lid="18">
			<a>0.9723699203976768, 0.23344536385590545, 0</a>
			<d>-0.23344536385590545, 0.9723699203976768, 0</d>
		</elem>
		<elem lid="19">
			<a>0.9723699203976768, 0.23344536385590545, 0</a>
			<d>-0.23344536385590545, 0.9723699203976768, 0</d>
		</elem>
		<elem lid="20">
			<a>0.9723699203976768, 0.23344536385590545, 0</a>
			<d>-0.23344536385590545, 0.9723699203976768, 0</d>
		</elem>
		<elem lid="21">
			<a>0.9588197348681932, 0.2840153447039226, 0</a>
			<d>-0.2840153447039226, 0.9588197348681932, 0</d>
		</elem>
		<elem lid="22">
			<a>0.9588197348681932, 0.2840153447039226, 0</a>
			<d>-0.2840153447039226, 0.9588197348681932, 0</d>
		</elem>
		<elem lid="23">
			<a>0.9588197348681932, 0.2840153447039226, 0</a>
			<d>-0.2840153447039226, 0.9588197348681932, 0</d>
		</elem>
		<elem lid="24">
			<a>0.9588197348681932, 0.2840153447039226, 0</a>
			<d>-0.2840153447039226, 0.9588197348681932, 0</d>
		</elem>
		<elem lid="25">
			<a>0.9426414910921783, 0.333806859233771, 0</a>
			<d>-0.333806859233771, 0.9426414910921783, 0</d>
		</elem>
		<elem lid="26">
			<a>0.9426414910921783, 0.333806859233771, 0</a>
			<d>-0.333806859233771, 0.9426414910921783, 0</d>
		</elem>
		<elem lid="27">
			<a>0.9426414910921783, 0.333806859233771, 0</a>
			<d>-0.333806859233771, 0.9426414910921783, 0</d>
		</elem>
		<elem lid="28">
			<a>0.9426414910921783, 0.333806859233771, 0</a>
			<d>-0.333806859233771, 0.9426414910921783, 0</d>
		</elem>
		<elem lid="29">
			<a>0.9238795325112866, 0.3826834323650897, 0</a>
			<d>-0.3826834323650897, 0.9238795325112866, 0</d>
		</elem>
		<elem lid="30">
			<a>0.9238795325112866, 0.3826834323650897, 0</a>
			<d>-0.3826834323650897, 0.9238795325112866, 0</d>
		</elem>
		<elem lid="31">
			<a>0.9238795325112866, 0.3826834323650897, 0</a>
			<d>-0.3826834323650897, 0.9238795325112866, 0</d>
		</elem>
		<elem lid="32">
			<a>0.9238795325112866, 0.3826834323650897, 0</a>
			<d>-0.3826834323650897, 0.9238795325112866, 0</d>
		</elem>
		<elem lid="33">
			<a>0.9025852843498604, 0.43051109680829514, 0</a>
			<d>-0.43051109680829514, 0.9025852843498604, 0</d>
		</elem>
		<elem lid="34">
			<a>0.9025852843498604, 0.43051109680829514, 0</a>
			<d>-0.43051109680829514, 0.9025852843498604, 0</d>
		</elem>
		<elem lid="35">
			<a>0.9025852843498604, 0.43051109680829514, 0</a>
			<d>-0.43051109680829514, 0.9025852843498604, 0</d>
		</elem>
		<elem lid="36">
			<a>0.9025852843498604, 0.43051109680829514, 0</a>
			<d>-0.43051109680829514, 0.9025852843498604, 0</d>
		</elem>
		<elem lid="37">
			<a>0.8788171126619653, 0.47715876025960835, 0</a>
			<d>-0.47715876025960835, 0.8788171126619653, 0</d>
		</elem>
		<elem lid="38">
			<a>0.8788171126619653, 0.47715876025960835, 0</a>
			<d>-0.47715876025960835, 0.8788171126619653, 0</d>
		</elem>
		<elem lid="39">
			<a>0.8788171126619653, 0.47715876025960835, 0</a>
			<d>-0.47715876025960835, 0.8788171126619653, 0</d>
		</elem>
		<elem lid="40">
			<a>0.8788171126619653, 0.47715876025960835, 0</a>
			<d>-0.47715876025960835, 0.8788171126619653, 0</d>
		</elem>
		<elem lid="41">
			<a>0.8526401643540922, 0.5224985647159488, 0</a>
			<d>-0.5224985647159488, 0.8526401643540922, 0</d>
		</elem>
		<elem lid="42">
			<a>0.8526401643540922, 0.5224985647159488, 0</a>
			<d>-0.5224985647159488, 0.8526401643540922, 0</d>
		</elem>
		<elem lid="43">
			<a>0.8526401643540922, 0.5224985647159488, 0</a>
			<d>-0.5224985647159488, 0.8526401643540922, 0</d>
		</elem>
		<elem lid="44">
			<a>0.8526401643540922, 0.5224985647159488, 0</a>
			<d>-0.5224985647159488, 0.8526401643540922, 0</d>
		</elem>
		<elem lid="45">
			<a>0.8241261886220158, 0.5664062369248327, 0</a>
			<d>-0.5664062369248327, 0.8241261886220158, 0</d>
		</elem>
		<elem lid="46">
			<a>0.8241261886220158, 0.5664062369248327, 0</a>
			<d>-0.5664062369248327, 0.8241261886220158, 0</d>
		</elem>
		<elem lid="47">
			<a>0.8241261886220158, 0.5664062369248327, 0</a>
			<d>-0.5664062369248327, 0.8241261886220158, 0</d>
		</elem>
		<elem lid="48">
			<a>0.8241261886220158, 0.5664062369248327, 0</a>
			<d>-0.5664062369248327, 0.8241261886220158, 0</d>
		</elem>
		<elem lid="49">
			<a>0.7933533402912353, 0.6087614290087205, 0</a>
			<d>-0.6087614290087205, 0.7933533402912353, 0</d>
		</elem>
		<elem lid="50">
			<a>0.7933533402912353, 0.6087614290087205, 0</a>
			<d>-0.6087614290087205, 0.7933533402912353, 0</d>
		</elem>
		<elem lid="51">
			<a>0.7933533402912353, 0.6087614290087205, 0</a>
			<d>-0.6087614290087205, 0.7933533402912353, 0</d>
		</elem>
		<elem lid="52">
			<a>0.7933533402912353, 0.6087614290087205, 0</a>
			<d>-0.6087614290087205, 0.7933533402912353, 0</d>
		</elem>
		<elem lid="53">
			<a>0.7604059656000312, 0.6494480483301835, 0</a>
			<d>-0.6494480483301835, 0.7604059656000312, 0</d>
		</elem>
		<elem lid="54">
			<a>0.7604059656000312, 0.6494480483301835, 0</a>
			<d>-0.6494480483301835, 0.7604059656000312, 0</d>
		</elem>
		<elem lid="55">
			<a>0.7604059656000312, 0.6494480483301835, 0</a>
			<d>-0.6494480483301835, 0.7604059656000312, 0</d>
		</elem>
		<elem lid="56">
			<a>0.7604059656000312, 0.6494480483301835, 0</a>
			<d>-0.6494480483301835, 0.7604059656000312, 0</d>
		</elem>
		<elem lid="57">
			<a>0.7253743710122877, 0.688354575693754, 0</a>
			<d>-0.688354575693754, 0.7253743710122877, 0</d>
		</elem>
		<elem lid="58">
			<a>0.7253743710122877, 0.688354575693754, 0</a>
			<d>-0.688354575693754, 0.7253743710122877, 0</d>
		</elem>
		<elem lid="59">
			<a>0.7253743710122877, 0.688354575693754, 0</a>
			<d>-0.688354575693754, 0.7253743710122877, 0</d>
		</elem>
		<elem lid="60">
			<a>0.7253743710122877, 0.688354575693754, 0</a>
			<d>-0.688354575693754, 0.7253743710122877, 0</d>
		</elem>
		<elem lid="61">
			<a>0.6883545756937541, 0.7253743710122876, 0</a>
			<d>-0.7253743710122876, 0.6883545756937541, 0</d>
		</elem>
		<elem lid="62">
			<a>0.6883545756937541, 0.7253743710122876, 0</a>
			<d>-0.7253743710122876, 0.6883545756937541, 0</d>
		</elem>
		<elem lid="63">
			<a>0.6883545756937541, 0.7253743710122876, 0</a>
			<d>-0.7253743710122876, 0.6883545756937541, 0</d>
		</elem>
		<elem lid="64">
			<a>0.6883545756937541, 0.7253743710122876, 0</a>
			<d>-0.7253743710122876, 0.6883545756937541, 0</d>
		</elem>
		<elem lid="65">
			<a>0.6494480483301837, 0.760405965600031, 0</a>
			<d>-0.760405965600031, 0.6494480483301837, 0</d>
		</elem>
		<elem lid="66">
			<a>0.6494480483301837, 0.760405965600031, 0</a>
			<d>-0.760405965600031, 0.6494480483301837, 0</d>
		</elem>
		<elem lid="67">
			<a>0.6494480483301837, 0.760405965600031, 0</a>
			<d>-0.760405965600031, 0.6494480483301837, 0</d>
		</elem>
		<elem lid="68">
			<a>0.6494480483301837, 0.760405965600031, 0</a>
			<d>-0.760405965600031, 0.6494480483301837, 0</d>
		</elem>
		<elem lid="69">
			<a>0.6087614290087207, 0.7933533402912353, 0</a>
			<d>-0.7933533402912353, 0.6087614290087207, 0</d>
		</elem>
		<elem lid="70">
			<a>0.6087614290087207, 0.7933533402912353, 0</a>
			<d>-0.7933533402912353, 0.6087614290087207, 0</d>
		</elem>
		<elem lid="71">
			<a>0.6087614290087207, 0.7933533402912353, 0</a>
			<d>-0.7933533402912353, 0.6087614290087207, 0</d>
		</elem>
		<elem lid="72">
			<a>0.6087614290087207, 0.7933533402912353, 0</a>
			<d>-0.7933533402912353, 0.6087614290087207, 0</d>
		</elem>
		<elem lid="73">
			<a>0.5664062369248328, 0.8241261886220157, 0</a>
			<d>-0.8241261886220157, 0.5664062369248328, 0</d>
		</elem>
		<elem lid="74">
			<a>0.5664062369248328, 0.8241261886220157, 0</a>
			<d>-0.8241261886220157, 0.5664062369248328, 0</d>
		</elem>
		<elem lid="75">
			<a>0.5664062369248328, 0.8241261886220157, 0</a>
			<d>-0.8241261886220157, 0.5664062369248328, 0</d>
		</elem>
		<elem lid="76">
			<a>0.5664062369248328, 0.8241261886220157, 0</a>
			<d>-0.8241261886220157, 0.5664062369248328, 0</d>
		</elem>
		<elem lid="77">
			<a>0.5224985647159489, 0.8526401643540922, 0</a>
			<d>-0.8526401643540922, 0.5224985647159489, 0</d>
		</elem>
		<elem lid="78">
			<a>0.5224985647159489, 0.8526401643540922, 0</a>
			<d>-0.8526401643540922, 0.5224985647159489, 0</d>
		</elem>
		<elem lid="79">
			<a>0.5224985647159489, 0.8526401643540922, 0</a>
			<d>-0.8526401643540922, 0.5224985647159489, 0</d>
		</elem>
		<elem lid="80">
			<a>0.5224985647159489, 0.8526401643540922, 0</a>
			<d>-0.8526401643540922, 0.5224985647159489, 0</d>
		</elem>
		<elem lid="81">
			<a>0.4771587602596085, 0.8788171126619652, 0</a>
			<d>-0.8788171126619652, 0.4771587602596085, 0</d>
		</elem>
		<elem lid="82">
			<a>0.4771587602596085, 0.8788171126619652, 0</a>
			<d>-0.8788171126619652, 0.4771587602596085, 0</d>
		</elem>
		<elem lid="83">
			<a>0.4771587602596085, 0.8788171126619652, 0</a>
			<d>-0.8788171126619652, 0.4771587602596085, 0</d>
		</elem>
		<elem lid="84">
			<a>0.4771587602596085, 0.8788171126619652, 0</a>
			<d>-0.8788171126619652, 0.4771587602596085, 0</d>
		</elem>
		<elem lid="85">
			<a>0.43051109680829525, 0.9025852843498604, 0</a>
			<d>-0.9025852843498604, 0.43051109680829525, 0</d>
		</elem>
		<elem lid="86">
			<a>0.43051109680829525, 0.9025852843498604, 0</a>
			<d>-0.9025852843498604, 0.43051109680829525, 0</d>
		</elem>
		<elem lid="87">
			<a>0.43051109680829525, 0.9025852843498604, 0</a>
			<d>-0.9025852843498604, 0.43051109680829525, 0</d>
		</elem>
		<elem lid="88">
			<a>0.43051109680829525, 0.9025852843498604, 0</a>
			<d>-0.9025852843498604, 0.43051109680829525, 0</d>
		</elem>
		<elem lid="89">
			<a>0.38268343236508984, 0.9238795325112866, 0</a>
			<d>-0.9238795325112866, 0.38268343236508984, 0</d>
		</elem>
		<elem lid="90">
			<a>0.38268343236508984, 0.9238795325112866, 0</a>
			<d>-0.9238795325112866, 0.38268343236508984, 0</d>
		</elem>
		<elem lid="91">
			<a>0.38268343236508984, 0.9238795325112866, 0</a>
			<d>-0.9238795325112866, 0.38268343236508984, 0</d>
		</elem>
		<elem lid="92">
			<a>0.38268343236508984, 0.9238795325112866, 0</a>
			<d>-0.9238795325112866, 0.38268343236508984, 0</d>
		</elem>
		<elem lid="93">
			<a>0.33380685923377096, 0.9426414910921784, 0</a>
			<d>-0.9426414910921784, 0.33380685923377096, 0</d>
		</elem>
		<elem lid="94">
			<a>0.33380685923377096, 0.9426414910921784, 0</a>
			<d>-0.9426414910921784, 0.33380685923377096, 0</d>
		</elem>
		<elem lid="95">
			<a>0.33380685923377096, 0.9426414910921784, 0</a>
			<d>-0.9426414910921784, 0.33380685923377096, 0</d>
		</elem>
		<elem lid="96">
			<a>0.33380685923377096, 0.9426414910921784, 0</a>
			<d>-0.9426414910921784, 0.33380685923377096, 0</d>
		</elem>
		<elem lid="97">
			<a>0.28401534470392276, 0.9588197348681932, 0</a>
			<d>-0.9588197348681932, 0.28401534470392276, 0</d>
		</elem>
		<elem lid="98">
			<a>0.28401534470392276, 0.9588197348681932, 0</a>
			<d>-0.9588197348681932, 0.28401534470392276, 0</d>
		</elem>
		<elem lid="99">
			<a>0.28401534470392276, 0.9588197348681932, 0</a>
			<d>-0.9588197348681932, 0.28401534470392276, 0</d>
		</elem>
		<elem lid="100">
			<a>0.28401534470392276, 0.9588197348681932, 0</a>
			<d>-0.9588197348681932, 0.28401534470392276, 0</d>
		</elem>
		<elem lid="101">
			<a>0.2334453638559055, 0.9723699203976768, 0</a>
			<d>-0.9723699203976768, 0.2334453638559055, 0</d>
		</elem>
		<elem lid="102">
			<a>0.2334453638559055, 0.9723699203976768, 0</a>
			<d>-0.9723699203976768, 0.2334453638559055, 0</d>
		</elem>
		<elem lid="103">
			<a>0.2334453638559055, 0.9723699203976768, 0</a>
			<d>-0.9723699203976768, 0.2334453638559055, 0</d>
		</elem>
		<elem lid="104">
			<a>0.2334453638559055, 0.9723699203976768, 0</a>
			<d>-0.9723699203976768, 0.2334453638559055, 0</d>
		</elem>
		<elem lid="105">
			<a>0.18223552549214744, 0.9832549075639546, 0</a>
			<d>-0.9832549075639546, 0.18223552549214744, 0</d>
		</elem>
		<elem lid="106">
			<a>0.18223552549214744, 0.9832549075639546, 0</a>
			<d>-0.9832549075639546, 0.18223552549214744, 0</d>
		</elem>
		<elem lid="107">
			<a>0.18223552549214744, 0.9832549075639546, 0</a>
			<d>-0.9832549075639546, 0.18223552549214744, 0</d>
		</elem>
		<elem lid="108">
			<a>0.18223552549214744, 0.9832549075639546, 0</a>
			<d>-0.9832549075639546, 0.18223552549214744, 0</d>
		</elem>
		<elem lid="109">
			<a>0.1305261922200515, 0.9914448613738103, 0</a>
			<d>-0.9914448613738103, 0.1305261922200515, 0</d>
		</elem>
		<elem lid="110">
			<a>0.1305261922200515, 0.9914448613738103, 0</a>
			<d>-0.9914448613738103, 0.1305261922200515, 0</d>
		</elem>
		<elem lid="111">
			<a>0.1305261922200515, 0.9914448613738103, 0</a>
			<d>-0.9914448613738103, 0.1305261922200515, 0</d>
		</elem>
		<elem lid="112">
			<a>0.1305261922200515, 0.9914448613738103, 0</a>
			<d>-0.9914448613738103, 0.1305261922200515, 0</d>
		</elem>
		<elem lid="113">
			<a>0.078459095727845, 0.9969173337331279, 0</a>
			<d>-0.9969173337331279, 0.078459095727845, 0</d>
		</elem>
		<elem lid="114">
			<a>0.078459095727845, 0.9969173337331279, 0</a>
			<d>-0.9969173337331279, 0.078459095727845, 0</d>
		</elem>
		<elem lid="115">
			<a>0.078459095727845, 0.9969173337331279, 0</a>
			<d>-0.9969173337331279, 0.078459095727845, 0</d>
		</elem>
		<elem lid="116">
			<a>0.078459095727845, 0.9969173337331279, 0</a>
			<d>-0.9969173337331279, 0.078459095727845, 0</d>
		</elem>
		<elem lid="117">
			<a>0.02617694830787314, 0.9996573249755575, 0</a>
			<d>-0.9996573249755575, 0.02617694830787314, 0</d>
		</elem>
		<elem lid="118">
			<a>0.02617694830787314, 0.9996573249755575, 0</a>
			<d>-0.9996573249755575, 0.02617694830787314, 0</d>
		</elem>
		<elem lid="119">
			<a>0.02617694830787314, 0.9996573249755575, 0</a>
			<d>-0.9996573249755575, 0.02617694830787314, 0</d>
		</elem>
		<elem lid="120">
			<a>0.02617694830787314, 0.9996573249755575, 0</a>
			<d>-0.9996573249755575, 0.02617694830787314, 0</d>
		</elem>
		<elem lid="121">
			<a>-0.026176948307873014, 0.9996573249755574, 0</a>
			<d>-0.9996573249755574, -0.026176948307873014, 0</d>
		</elem>
		<elem lid="122">
			<a>-0.026176948307873014, 0.9996573249755574, 0</a>
			<d>-0.9996573249755574, -0.026176948307873014, 0</d>
		</elem>
		<elem lid="123">
			<a>-0.026176948307873014, 0.9996573249755574, 0</a>
			<d>-0.9996573249755574, -0.026176948307873014, 0</d>
		</elem>
		<elem lid="124">
			<a>-0.026176948307873014, 0.9996573249755574, 0</a>
			<d>-0.9996573249755574, -0.026176948307873014, 0</d>
		</elem>
		<elem lid="125">
			<a>-0.07845909572784489, 0.996917333733128, 0</a>
			<d>-0.996917333733128, -0.07845909572784489, 0</d>
		</elem>
		<elem lid="126">
			<a>-0.07845909572784489, 0.996917333733128, 0</a>
			<d>-0.996917333733128, -0.07845909572784489, 0</d>
		</elem>
		<elem lid="127">
			<a>-0.07845909572784489, 0.996917333733128, 0</a>
			<d>-0.996917333733128, -0.07845909572784489, 0</d>
		</elem>
		<elem lid="128">
			<a>-0.07845909572784489, 0.996917333733128, 0</a>
			<d>-0.996917333733128, -0.07845909572784489, 0</d>
		</elem>
		<elem lid="129">
			<a>-0.1305261922200514, 0.9914448613738103, 0</a>
			<d>-0.9914448613738103, -0.1305261922200514, 0</d>
		</elem>
		<elem lid="130">
			<a>-0.1305261922200514, 0.9914448613738103, 0</a>
			<d>-0.9914448613738103, -0.1305261922200514, 0</d>
		</elem>
		<elem lid="131">
			<a>-0.1305261922200514, 0.9914448613738103, 0</a>
			<d>-0.9914448613738103, -0.1305261922200514, 0</d>
		</elem>
		<elem lid="132">
			<a>-0.1305261922200514, 0.9914448613738103, 0</a>
			<d>-0.9914448613738103, -0.1305261922200514, 0</d>
		</elem>
		<elem lid="133">
			<a>-0.18223552549214733, 0.9832549075639547, 0</a>
			<d>-0.9832549075639547, -0.18223552549214733, 0</d>
		</elem>
		<elem lid="134">
			<a>-0.18223552549214733, 0.9832549075639547, 0</a>
			<d>-0.9832549075639547, -0.18223552549214733, 0</d>
		</elem>
		<elem lid="135">
			<a>-0.18223552549214733, 0.9832549075639547, 0</a>
			<d>-0.9832549075639547, -0.18223552549214733, 0</d>
		</elem>
		<elem lid="136">
			<a>-0.18223552549214733, 0.9832549075639547, 0</a>
			<d>-0.9832549075639547, -0.18223552549214733, 0</d>
		</elem>
		<elem lid="137">
			<a>-0.2334453638559054, 0.9723699203976768, 0</a>
			<d>-0.9723699203976768, -0.2334453638559054, 0</d>
		</elem>
		<elem lid="138">
			<a>-0.2334453638559054, 0.9723699203976768, 0</a>
			<d>-0.9723699203976768, -0.2334453638559054, 0</d>
		</elem>
		<elem lid="139">
			<a>-0.2334453638559054, 0.9723699203976768, 0</a>
			<d>-0.9723699203976768, -0.2334453638559054, 0</d>
		</elem>
		<elem lid="140">
			<a>-0.2334453638559054, 0.9723699203976768, 0</a>
			<d>-0.9723699203976768, -0.2334453638559054, 0</d>
		</elem>
		<elem lid="141">
			<a>-0.28401534470392265, 0.9588197348681932, 0</a>
			<d>-0.9588197348681932, -0.28401534470392265, 0</d>
		</elem>
		<elem lid="142">
			<a>-0.28401534470392265, 0.9588197348681932, 0</a>
			<d>-0.9588197348681932, -0.28401534470392265, 0</d>
		</elem>
		<elem lid="143">
			<a>-0.28401534470392265, 0.9588197348681932, 0</a>
			<d>-0.9588197348681932, -0.28401534470392265, 0</d>
		</elem>
		<elem lid="144">
			<a>-0.28401534470392265, 0.9588197348681932, 0</a>
			<d>-0.9588197348681932, -0.28401534470392265, 0</d>
		</elem>
		<elem lid="145">
			<a>-0.33380685923377085, 0.9426414910921785, 0</a>
			<d>-0.9426414910921785, -0.33380685923377085, 0</d>
		</elem>
		<elem lid="146">
			<a>-0.33380685923377085, 0.9426414910921785, 0</a>
			<d>-0.9426414910921785, -0.33380685923377085, 0</d>
		</elem>
		<elem lid="147">
			<a>-0.33380685923377085, 0.9426414910921785, 0</a>
			<d>-0.9426414910921785, -0.33380685923377085, 0</d>
		</elem>
		<elem lid="148">
			<a>-0.33380685923377085, 0.9426414910921785, 0</a>
			<d>-0.9426414910921785, -0.33380685923377085, 0</d>
		</elem>
		<elem lid="149">
			<a>-0.3826834323650897, 0.9238795325112867, 0</a>
			<d>-0.9238795325112867, -0.3826834323650897, 0</d>
		</elem>
		<elem lid="150">
			<a>-0.3826834323650897, 0.9238795325112867, 0</a>
			<d>-0.9238795325112867, -0.3826834323650897, 0</d>
		</elem>
		<elem lid="151">
			<a>-0.3826834323650897, 0.9238795325112867, 0</a>
			<d>-0.9238795325112867, -0.3826834323650897, 0</d>
		</elem>
		<elem lid="152">
			<a>-0.3826834323650897, 0.9238795325112867, 0</a>
			<d>-0.9238795325112867, -0.3826834323650897, 0</d>
		</elem>
		<elem lid="153">
			<a>-0.43051109680829497, 0.9025852843498606, 0</a>
			<d>-0.9025852843498606, -0.43051109680829497, 0</d>
		</elem>
		<elem lid="154">
			<a>-0.43051109680829497, 0.9025852843498606, 0</a>
			<d>-0.9025852843498606, -0.43051109680829497, 0</d>
		</elem>
		<elem lid="155">
			<a>-0.43051109680829497, 0.9025852843498606, 0</a>
			<d>-0.9025852843498606, -0.43051109680829497, 0</d>
		</elem>
		<elem lid="156">
			<a>-0.43051109680829497, 0.9025852843498606, 0</a>
			<d>-0.9025852843498606, -0.43051109680829497, 0</d>
		</elem>
		<elem lid="157">
			<a>-0.47715876025960846, 0.8788171126619653, 0</a>
			<d>-0.8788171126619653, -0.47715876025960846, 0</d>
		</elem>
		<elem lid="158">
			<a>-0.47715876025960846, 0.8788171126619653, 0</a>
			<d>-0.8788171126619653, -0.47715876025960846, 0</d>
		</elem>
		<elem lid="159">
			<a>-0.47715876025960846, 0.8788171126619653, 0</a>
			<d>-0.8788171126619653, -0.47715876025960846, 0</d>
		</elem>
		<elem lid="160">
			<a>-0.47715876025960846, 0.8788171126619653, 0</a>
			<d>-0.8788171126619653, -0.47715876025960846, 0</d>
		</elem>
		<elem lid="161">
			<a>-0.5224985647159487, 0.8526401643540923, 0</a>
			<d>-0.8526401643540923, -0.5224985647159487, 0</d>
		</elem>
		<elem lid="162">
			<a>-0.5224985647159487, 0.8526401643540923, 0</a>
			<d>-0.8526401643540923, -0.5224985647159487, 0</d>
		</elem>
		<elem lid="163">
			<a>-0.5224985647159487, 0.8526401643540923, 0</a>
			<d>-0.8526401643540923, -0.5224985647159487, 0</d>
		</elem>
		<elem lid="164">
			<a>-0.5224985647159487, 0.8526401643540923, 0</a>
			<d>-0.8526401643540923, -0.5224985647159487, 0</d>
		</elem>
		<elem lid="165">
			<a>-0.5664062369248328, 0.8241261886220156, 0</a>
			<d>-0.8241261886220156, -0.5664062369248328, 0</d>
		</elem>
		<elem lid="166">
			<a>-0.5664062369248328, 0.8241261886220156, 0</a>
			<d>-0.8241261886220156, -0.5664062369248328, 0</d>
		</elem>
		<elem lid="167">
			<a>-0.5664062369248328, 0.8241261886220156, 0</a>
			<d>-0.8241261886220156, -0.5664062369248328, 0</d>
		</elem>
		<elem lid="168">
			<a>-0.5664062369248328, 0.8241261886220156, 0</a>
			<d>-0.8241261886220156, -0.5664062369248328, 0</d>
		</elem>
		<elem lid="169">
			<a>-0.6087614290087205, 0.7933533402912353, 0</a>
			<d>-0.7933533402912353, -0.6087614290087205, 0</d>
		</elem>
		<elem lid="170">
			<a>-0.6087614290087205, 0.7933533402912353, 0</a>
			<d>-0.7933533402912353, -0.6087614290087205, 0</d>
		</elem>
		<elem lid="171">
			<a>-0.6087614290087205, 0.7933533402912353, 0</a>
			<d>-0.7933533402912353, -0.6087614290087205, 0</d>
		</elem>
		<elem lid="172">
			<a>-0.6087614290087205, 0.7933533402912353, 0</a>
			<d>-0.7933533402912353, -0.6087614290087205, 0</d>
		</elem>
		<elem lid="173">
			<a>-0.6494480483301835, 0.7604059656000312, 0</a>
			<d>-0.7604059656000312, -0.6494480483301835, 0</d>
		</elem>
		<elem lid="174">
			<a>-0.6494480483301835, 0.7604059656000312, 0</a>
			<d>-0.7604059656000312, -0.6494480483301835, 0</d>
		</elem>
		<elem lid="175">
			<a>-0.6494480483301835, 0.7604059656000312, 0</a>
			<d>-0.7604059656000312, -0.6494480483301835, 0</d>
		</elem>
		<elem lid="176">
			<a>-0.6494480483301835, 0.7604059656000312, 0</a>
			<d>-0.7604059656000312, -0.6494480483301835, 0</d>
		</elem>
		<elem lid="177">
			<a>-0.6883545756937541, 0.7253743710122876, 0</a>
			<d>-0.7253743710122876, -0.6883545756937541, 0</d>
		</elem>
		<elem lid="178">
			<a>-0.6883545756937541, 0.7253743710122876, 0</a>
			<d>-0.7253743710122876, -0.6883545756937541, 0</d>
		</elem>
		<elem lid="179">
			<a>-0.6883545756937541, 0.7253743710122876, 0</a>
			<d>-0.7253743710122876, -0.6883545756937541, 0</d>
		</elem>
		<elem lid="180">
			<a>-0.6883545756937541, 0.7253743710122876, 0</a>
			<d>-0.7253743710122876, -0.6883545756937541, 0</d>
		</elem>
		<elem lid="181">
			<a>-0.7253743710122877, 0.6883545756937539, 0</a>
			<d>-0.6883545756937539, -0.7253743710122877, 0</d>
		</elem>
		<elem lid="182">
			<a>-0.7253743710122877, 0.6883545756937539, 0</a>
			<d>-0.6883545756937539, -0.7253743710122877, 0</d>
		</elem>
		<elem lid="183">
			<a>-0.7253743710122877, 0.6883545756937539, 0</a>
			<d>-0.6883545756937539, -0.7253743710122877, 0</d>
		</elem>
		<elem lid="184">
			<a>-0.7253743710122877, 0.6883545756937539, 0</a>
			<d>-0.6883545756937539, -0.7253743710122877, 0</d>
		</elem>
		<elem lid="185">
			<a>-0.7604059656000309, 0.6494480483301837, 0</a>
			<d>-0.6494480483301837, -0.7604059656000309, 0</d>
		</elem>
		<elem lid="186">
			<a>-0.7604059656000309, 0.6494480483301837, 0</a>
			<d>-0.6494480483301837, -0.7604059656000309, 0</d>
		</elem>
		<elem lid="187">
			<a>-0.7604059656000309, 0.6494480483301837, 0</a>
			<d>-0.6494480483301837, -0.7604059656000309, 0</d>
		</elem>
		<elem lid="188">
			<a>-0.7604059656000309, 0.6494480483301837, 0</a>
			<d>-0.6494480483301837, -0.7604059656000309, 0</d>
		</elem>
		<elem lid="189">
			<a>-0.7933533402912354, 0.6087614290087204, 0</a>
			<d>-0.6087614290087204, -0.7933533402912354, 0</d>
		</elem>
		<elem lid="190">
			<a>-0.7933533402912354, 0.6087614290087204, 0</a>
			<d>-0.6087614290087204, -0.7933533402912354, 0</d>
		</elem>
		<elem lid="191">
			<a>-0.7933533402912354, 0.6087614290087204, 0</a>
			<d>-0.6087614290087204, -0.7933533402912354, 0</d>
		</elem>
		<elem lid="192">
			<a>-0.7933533402912354, 0.6087614290087204, 0</a>
			<d>-0.6087614290087204, -0.7933533402912354, 0</d>
		</elem>
		<elem lid="193">
			<a>-0.8241261886220155, 0.566406236924833, 0</a>
			<d>-0.566406236924833, -0.8241261886220155, 0</d>
		</elem>
		<elem lid="194">
			<a>-0.8241261886220155, 0.566406236924833, 0</a>
			<d>-0.566406236924833, -0.8241261886220155, 0</d>
		</elem>
		<elem lid="195">
			<a>-0.8241261886220155, 0.566406236924833, 0</a>
			<d>-0.566406236924833, -0.8241261886220155, 0</d>
		</elem>
		<elem lid="196">
			<a>-0.8241261886220155, 0.566406236924833, 0</a>
			<d>-0.566406236924833, -0.8241261886220155, 0</d>
		</elem>
		<elem lid="197">
			<a>-0.8526401643540922, 0.5224985647159489, 0</a>
			<d>-0.5224985647159489, -0.8526401643540922, 0</d>
		</elem>
		<elem lid="198">
			<a>-0.8526401643540922, 0.5224985647159489, 0</a>
			<d>-0.5224985647159489, -0.8526401643540922, 0</d>
		</elem>
		<elem lid="199">
			<a>-0.8526401643540922, 0.5224985647159489, 0</a>
			<d>-0.5224985647159489, -0.8526401643540922, 0</d>
		</elem>
		<elem lid="200">
			<a>-0.8526401643540922, 0.5224985647159489, 0</a>
			<d>-0.5224985647159489, -0.8526401643540922, 0</d>
		</elem>
		<elem lid="201">
			<a>-0.8788171126619652, 0.47715876025960857, 0</a>
			<d>-0.47715876025960857, -0.8788171126619652, 0</d>
		</elem>
		<elem lid="202">
			<a>-0.8788171126619652, 0.47715876025960857, 0</a>
			<d>-0.47715876025960857, -0.8788171126619652, 0</d>
		</elem>
		<elem lid="203">
			<a>-0.8788171126619652, 0.47715876025960857, 0</a>
			<d>-0.47715876025960857, -0.8788171126619652, 0</d>
		</elem>
		<elem lid="204">
			<a>-0.8788171126619652, 0.47715876025960857, 0</a>
			<d>-0.47715876025960857, -0.8788171126619652, 0</d>
		</elem>
		<elem lid="205">
			<a>-0.9025852843498603, 0.43051109680829547, 0</a>
			<d>-0.43051109680829547, -0.9025852843498603, 0</d>
		</elem>
		<elem lid="206">
			<a>-0.9025852843498603, 0.43051109680829547, 0</a>
			<d>-0.43051109680829547, -0.9025852843498603, 0</d>
		</elem>
		<elem lid="207">
			<a>-0.9025852843498603, 0.43051109680829547, 0</a>
			<d>-0.43051109680829547, -0.9025852843498603, 0</d>
		</elem>
		<elem lid="208">
			<a>-0.9025852843498603, 0.43051109680829547, 0</a>
			<d>-0.43051109680829547, -0.9025852843498603, 0</d>
		</elem>
		<elem lid="209">
			<a>-0.9238795325112866, 0.3826834323650899, 0</a>
			<d>-0.3826834323650899, -0.9238795325112866, 0</d>
		</elem>
		<elem lid="210">
			<a>-0.9238795325112866, 0.3826834323650899, 0</a>
			<d>-0.3826834323650899, -0.9238795325112866, 0</d>
		</elem>
		<elem lid="211">
			<a>-0.9238795325112866, 0.3826834323650899, 0</a>
			<d>-0.3826834323650899, -0.9238795325112866, 0</d>
		</elem>
		<elem lid="212">
			<a>-0.9238795325112866, 0.3826834323650899, 0</a>
			<d>-0.3826834323650899, -0.9238795325112866, 0</d>
		</elem>
		<elem lid="213">
			<a>-0.9426414910921783, 0.3338068592337712, 0</a>
			<d>-0.3338068592337712, -0.9426414910921783, 0</d>
		</elem>
		<elem lid="214">
			<a>-0.9426414910921783, 0.3338068592337712, 0</a>
			<d>-0.3338068592337712, -0.9426414910921783, 0</d>
		</elem>
		<elem lid="215">
			<a>-0.9426414910921783, 0.3338068592337712, 0</a>
			<d>-0.3338068592337712, -0.9426414910921783, 0</d>
		</elem>
		<elem lid="216">
			<a>-0.9426414910921783, 0.3338068592337712, 0</a>
			<d>-0.3338068592337712, -0.9426414910921783, 0</d>
		</elem>
		<elem lid="217">
			<a>-0.958819734868193, 0.28401534470392303, 0</a>
			<d>-0.28401534470392303, -0.958819734868193, 0</d>
		</elem>
		<elem lid="218">
			<a>-0.958819734868193, 0.28401534470392303, 0</a>
			<d>-0.28401534470392303, -0.958819734868193, 0</d>
		</elem>
		<elem lid="219">
			<a>-0.958819734868193, 0.28401534470392303, 0</a>
			<d>-0.28401534470392303, -0.958819734868193, 0</d>
		</elem>
		<elem lid="220">
			<a>-0.958819734868193, 0.28401534470392303, 0</a>
			<d>-0.28401534470392303, -0.958819734868193, 0</d>
		</elem>
		<elem lid="221">
			<a>-0.9723699203976768, 0.23344536385590556, 0</a>
			<d>-0.23344536385590556, -0.9723699203976768, 0</d>
		</elem>
		<elem lid="222">
			<a>-0.9723699203976768, 0.23344536385590556, 0</a>
			<d>-0.23344536385590556, -0.9723699203976768, 0</d>
		</elem>
		<elem lid="223">
			<a>-0.9723699203976768, 0.23344536385590556, 0</a>
			<d>-0.23344536385590556, -0.9723699203976768, 0</d>
		</elem>
		<elem lid="224">
			<a>-0.9723699203976768, 0.23344536385590556, 0</a>
			<d>-0.23344536385590556, -0.9723699203976768, 0</d>
		</elem>
		<elem lid="225">
			<a>-0.9832549075639546, 0.18223552549214772, 0</a>
			<d>-0.18223552549214772, -0.9832549075639546, 0</d>
		</elem>
		<elem lid="226">
			<a>-0.9832549075639546, 0.18223552549214772, 0</a>
			<d>-0.18223552549214772, -0.9832549075639546, 0</d>
		</elem>
		<elem lid="227">
			<a>-0.9832549075639546, 0.18223552549214772, 0</a>
			<d>-0.18223552549214772, -0.9832549075639546, 0</d>
		</elem>
		<elem lid="228">
			<a>-0.9832549075639546, 0.18223552549214772, 0</a>
			<d>-0.18223552549214772, -0.9832549075639546, 0</d>
		</elem>
		<elem lid="229">
			<a>-0.9914448613738103, 0.13052619222005155, 0</a>
			<d>-0.13052619222005155, -0.9914448613738103, 0</d>
		</elem>
		<elem lid="230">
			<a>-0.9914448613738103, 0.13052619222005155, 0</a>
			<d>-0.13052619222005155, -0.9914448613738103, 0</d>
		</elem>
		<elem lid="231">
			<a>-0.9914448613738103, 0.13052619222005155, 0</a>
			<d>-0.13052619222005155, -0.9914448613738103, 0</d>
		</elem>
		<elem lid="232">
			<a>-0.9914448613738103, 0.13052619222005155, 0</a>
			<d>-0.13052619222005155, -0.9914448613738103, 0</d>
		</elem>
		<elem lid="233">
			<a>-0.9969173337331279, 0.07845909572784507, 0</a>
			<d>-0.07845909572784507, -0.9969173337331279, 0</d>
		</elem>
		<elem lid="234">
			<a>-0.9969173337331279, 0.07845909572784507, 0</a>
			<d>-0.07845909572784507, -0.9969173337331279, 0</d>
		</elem>
		<elem lid="235">
			<a>-0.9969173337331279, 0.07845909572784507, 0</a>
			<d>-0.07845909572784507, -0.9969173337331279, 0</d>
		</elem>
		<elem lid="236">
			<a>-0.9969173337331279, 0.07845909572784507, 0</a>
			<d>-0.07845909572784507, -0.9969173337331279, 0</d>
		</elem>
		<elem lid="237">
			<a>-0.9996573249755576, 0.02617694830787342, 0</a>
			<d>-0.02617694830787342, -0.9996573249755576, 0</d>
		</elem>
		<elem lid="238">
			<a>-0.9996573249755576, 0.02617694830787342, 0</a>
			<d>-0.02617694830787342, -0.9996573249755576, 0</d>
		</elem>
		<elem lid="239">
			<a>-0.9996573249755576, 0.02617694830787342, 0</a>
			<d>-0.02617694830787342, -0.9996573249755576, 0</d>
		</elem>
		<elem lid="240">
			<a>-0.9996573249755576, 0.02617694830787342, 0</a>
			<d>-0.02617694830787342, -0.9996573249755576, 0</d>
		</elem>
		<elem lid="241">
			<a>-0.9996573249755575, -0.026176948307873177, 0</a>
			<d>0.026176948307873177, -0.9996573249755575, 0</d>
		</elem>
		<elem lid="242">
			<a>-0.9996573249755575, -0.026176948307873177, 0</a>
			<d>0.026176948307873177, -0.9996573249755575, 0</d>
		</elem>
		<elem lid="243">
			<a>-0.9996573249755575, -0.026176948307873177, 0</a>
			<d>0.026176948307873177, -0.9996573249755575, 0</d>
		</elem>
		<elem lid="244">
			<a>-0.9996573249755575, -0.026176948307873177, 0</a>
			<d>0.026176948307873177, -0.9996573249755575, 0</d>
		</elem>
		<elem lid="245">
			<a>-0.996917333733128, -0.07845909572784482, 0</a>
			<d>0.07845909572784482, -0.996917333733128, 0</d>
		</elem>
		<elem lid="246">
			<a>-0.996917333733128, -0.07845909572784482, 0</a>
			<d>0.07845909572784482, -0.996917333733128, 0</d>
		</elem>
		<elem lid="247">
			<a>-0.996917333733128, -0.07845909572784482, 0</a>
			<d>0.07845909572784482, -0.996917333733128, 0</d>
		</elem>
		<elem lid="248">
			<a>-0.996917333733128, -0.07845909572784482, 0</a>
			<d>0.07845909572784482, -0.996917333733128, 0</d>
		</elem>
		<elem lid="249">
			<a>-0.9914448613738103, -0.13052619222005135, 0</a>
			<d>0.13052619222005135, -0.9914448613738103, 0</d>
		</elem>
		<elem lid="250">
			<a>-0.9914448613738103, -0.13052619222005135, 0</a>
			<d>0.13052619222005135, -0.9914448613738103, 0</d>
		</elem>
		<elem lid="251">
			<a>-0.9914448613738103, -0.13052619222005135, 0</a>
			<d>0.13052619222005135, -0.9914448613738103, 0</d>
		</elem>
		<elem lid="252">
			<a>-0.9914448613738103, -0.13052619222005135, 0</a>
			<d>0.13052619222005135, -0.9914448613738103, 0</d>
		</elem>
		<elem lid="253">
			<a>-0.9832549075639546, -0.1822355254921475, 0</a>
			<d>0.1822355254921475, -0.9832549075639546, 0</d>
		</elem>
		<elem lid="254">
			<a>-0.9832549075639546, -0.1822355254921475, 0</a>
			<d>0.1822355254921475, -0.9832549075639546, 0</d>
		</elem>
		<elem lid="255">
			<a>-0.9832549075639546, -0.1822355254921475, 0</a>
			<d>0.1822355254921475, -0.9832549075639546, 0</d>
		</elem>
		<elem lid="256">
			<a>-0.9832549075639546, -0.1822355254921475, 0</a>
			<d>0.1822355254921475, -0.9832549075639546, 0</d>
		</elem>
		<elem lid="257">
			<a>-0.9723699203976768, -0.23344536385590534, 0</a>
			<d>0.23344536385590534, -0.9723699203976768, 0</d>
		</elem>
		<elem lid="258">
			<a>-0.9723699203976768, -0.23344536385590534, 0</a>
			<d>0.23344536385590534, -0.9723699203976768, 0</d>
		</elem>
		<elem lid="259">
			<a>-0.9723699203976768, -0.23344536385590534, 0</a>
			<d>0.23344536385590534, -0.9723699203976768, 0</d>
		</elem>
		<elem lid="260">
			<a>-0.9723699203976768, -0.23344536385590534, 0</a>
			<d>0.23344536385590534, -0.9723699203976768, 0</d>
		</elem>
		<elem lid="261">
			<a>-0.9588197348681932, -0.2840153447039228, 0</a>
			<d>0.2840153447039228, -0.9588197348681932, 0</d>
		</elem>
		<elem lid="262">
			<a>-0.9588197348681932, -0.2840153447039228, 0</a>
			<d>0.2840153447039228, -0.9588197348681932, 0</d>
		</elem>
		<elem lid="263">
			<a>-0.9588197348681932, -0.2840153447039228, 0</a>
			<d>0.2840153447039228, -0.9588197348681932, 0</d>
		</elem>
		<elem lid="264">
			<a>-0.9588197348681932, -0.2840153447039228, 0</a>
			<d>0.2840153447039228, -0.9588197348681932, 0</d>
		</elem>
		<elem lid="265">
			<a>-0.9426414910921784, -0.333806859233771, 0</a>
			<d>0.333806859233771, -0.9426414910921784, 0</d>
		</elem>
		<elem lid="266">
			<a>-0.9426414910921784, -0.333806859233771, 0</a>
			<d>0.333806859233771, -0.9426414910921784, 0</d>
		</elem>
		<elem lid="267">
			<a>-0.9426414910921784, -0.333806859233771, 0</a>
			<d>0.333806859233771, -0.9426414910921784, 0</d>
		</elem>
		<elem lid="268">
			<a>-0.9426414910921784, -0.333806859233771, 0</a>
			<d>0.333806859233771, -0.9426414910921784, 0</d>
		</elem>
		<elem lid="269">
			<a>-0.9238795325112867, -0.38268343236508967, 0</a>
			<d>0.38268343236508967, -0.9238795325112867, 0</d>
		</elem>
		<elem lid="270">
			<a>-0.9238795325112867, -0.38268343236508967, 0</a>
			<d>0.38268343236508967, -0.9238795325112867, 0</d>
		</elem>
		<elem lid="271">
			<a>-0.9238795325112867, -0.38268343236508967, 0</a>
			<d>0.38268343236508967, -0.9238795325112867, 0</d>
		</elem>
		<elem lid="272">
			<a>-0.9238795325112867, -0.38268343236508967, 0</a>
			<d>0.38268343236508967, -0.9238795325112867, 0</d>
		</elem>
		<elem lid="273">
			<a>-0.9025852843498604, -0.4305110968082953, 0</a>
			<d>0.4305110968082953, -0.9025852843498604, 0</d>
		</elem>
		<elem lid="274">
			<a>-0.9025852843498604, -0.4305110968082953, 0</a>
			<d>0.4305110968082953, -0.9025852843498604, 0</d>
		</elem>
		<elem lid="275">
			<a>-0.9025852843498604, -0.4305110968082953, 0</a>
			<d>0.4305110968082953, -0.9025852843498604, 0</d>
		</elem>
		<elem lid="276">
			<a>-0.9025852843498604, -0.4305110968082953, 0</a>
			<d>0.4305110968082953, -0.9025852843498604, 0</d>
		</elem>
		<elem lid="277">
			<a>-0.8788171126619653, -0.4771587602596084, 0</a>
			<d>0.4771587602596084, -0.8788171126619653, 0</d>
		</elem>
		<elem lid="278">
			<a>-0.8788171126619653, -0.4771587602596084, 0</a>
			<d>0.4771587602596084, -0.8788171126619653, 0</d>
		</elem>
		<elem lid="279">
			<a>-0.8788171126619653, -0.4771587602596084, 0</a>
			<d>0.4771587602596084, -0.8788171126619653, 0</d>
		</elem>
		<elem lid="280">
			<a>-0.8788171126619653, -0.4771587602596084, 0</a>
			<d>0.4771587602596084, -0.8788171126619653, 0</d>
		</elem>
		<elem lid="281">
			<a>-0.8526401643540923, -0.5224985647159487, 0</a>
			<d>0.5224985647159487, -0.8526401643540923, 0</d>
		</elem>
		<elem lid="282">
			<a>-0.8526401643540923, -0.5224985647159487, 0</a>
			<d>0.5224985647159487, -0.8526401643540923, 0</d>
		</elem>
		<elem lid="283">
			<a>-0.8526401643540923, -0.5224985647159487, 0</a>
			<d>0.5224985647159487, -0.8526401643540923, 0</d>
		</elem>
		<elem lid="284">
			<a>-0.8526401643540923, -0.5224985647159487, 0</a>
			<d>0.5224985647159487, -0.8526401643540923, 0</d>
		</elem>
		<elem lid="285">
			<a>-0.8241261886220157, -0.5664062369248328, 0</a>
			<d>0.5664062369248328, -0.8241261886220157, 0</d>
		</elem>
		<elem lid="286">
			<a>-0.8241261886220157, -0.5664062369248328, 0</a>
			<d>0.5664062369248328, -0.8241261886220157, 0</d>
		</elem>
		<elem lid="287">
			<a>-0.8241261886220157, -0.5664062369248328, 0</a>
			<d>0.5664062369248328, -0.8241261886220157, 0</d>
		</elem>
		<elem lid="288">
			<a>-0.8241261886220157, -0.5664062369248328, 0</a>
			<d>0.5664062369248328, -0.8241261886220157, 0</d>
		</elem>
		<elem lid="289">
			<a>-0.7933533402912356, -0.6087614290087202, 0</a>
			<d>0.6087614290087202, -0.7933533402912356, 0</d>
		</elem>
		<elem lid="290">
			<a>-0.7933533402912356, -0.6087614290087202, 0</a>
			<d>0.6087614290087202, -0.7933533402912356, 0</d>
		</elem>
		<elem lid="291">
			<a>-0.7933533402912356, -0.6087614290087202, 0</a>
			<d>0.6087614290087202, -0.7933533402912356, 0</d>
		</elem>
		<elem lid="292">
			<a>-0.7933533402912356, -0.6087614290087202, 0</a>
			<d>0.6087614290087202, -0.7933533402912356, 0</d>
		</elem>
		<elem lid="293">
			<a>-0.7604059656000312, -0.6494480483301835, 0</a>
			<d>0.6494480483301835, -0.7604059656000312, 0</d>
		</elem>
		<elem lid="294">
			<a>-0.7604059656000312, -0.6494480483301835, 0</a>
			<d>0.6494480483301835, -0.7604059656000312, 0</d>
		</elem>
		<elem lid="295">
			<a>-0.7604059656000312, -0.6494480483301835, 0</a>
			<d>0.6494480483301835, -0.7604059656000312, 0</d>
		</elem>
		<elem lid="296">
			<a>-0.7604059656000312, -0.6494480483301835, 0</a>
			<d>0.6494480483301835, -0.7604059656000312, 0</d>
		</elem>
		<elem lid="297">
			<a>-0.725374371012288, -0.6883545756937538, 0</a>
			<d>0.6883545756937538, -0.725374371012288, 0</d>
		</elem>
		<elem lid="298">
			<a>-0.725374371012288, -0.6883545756937538, 0</a>
			<d>0.6883545756937538, -0.725374371012288, 0</d>
		</elem>
		<elem lid="299">
			<a>-0.725374371012288, -0.6883545756937538, 0</a>
			<d>0.6883545756937538, -0.725374371012288, 0</d>
		</elem>
		<elem lid="300">
			<a>-0.725374371012288, -0.6883545756937538, 0</a>
			<d>0.6883545756937538, -0.725374371012288, 0</d>
		</elem>
		<elem lid="301">
			<a>-0.6883545756937544, -0.7253743710122874, 0</a>
			<d>0.7253743710122874, -0.6883545756937544, 0</d>
		</elem>
		<elem lid="302">
			<a>-0.6883545756937544, -0.7253743710122874, 0</a>
			<d>0.7253743710122874, -0.6883545756937544, 0</d>
		</elem>
		<elem lid="303">
			<a>-0.6883545756937544, -0.7253743710122874, 0</a>
			<d>0.7253743710122874, -0.6883545756937544, 0</d>
		</elem>
		<elem lid="304">
			<a>-0.6883545756937544, -0.7253743710122874, 0</a>
			<d>0.7253743710122874, -0.6883545756937544, 0</d>
		</elem>
		<elem lid="305">
			<a>-0.6494480483301834, -0.7604059656000313, 0</a>
			<d>0.7604059656000313, -0.6494480483301834, 0</d>
		</elem>
		<elem lid="306">
			<a>-0.6494480483301834, -0.7604059656000313, 0</a>
			<d>0.7604059656000313, -0.6494480483301834, 0</d>
		</elem>
		<elem lid="307">
			<a>-0.6494480483301834, -0.7604059656000313, 0</a>
			<d>0.7604059656000313, -0.6494480483301834, 0</d>
		</elem>
		<elem lid="308">
			<a>-0.6494480483301834, -0.7604059656000313, 0</a>
			<d>0.7604059656000313, -0.6494480483301834, 0</d>
		</elem>
		<elem lid="309">
			<a>-0.6087614290087209, -0.793353340291235, 0</a>
			<d>0.793353340291235, -0.6087614290087209, 0</d>
		</elem>
		<elem lid="310">
			<a>-0.6087614290087209, -0.793353340291235, 0</a>
			<d>0.793353340291235, -0.6087614290087209, 0</d>
		</elem>
		<elem lid="311">
			<a>-0.6087614290087209, -0.793353340291235, 0</a>
			<d>0.793353340291235, -0.6087614290087209, 0</d>
		</elem>
		<elem lid="312">
			<a>-0.6087614290087209, -0.793353340291235, 0</a>
			<d>0.793353340291235, -0.6087614290087209, 0</d>
		</elem>
		<elem lid="313">
			<a>-0.5664062369248328, -0.8241261886220157, 0</a>
			<d>0.8241261886220157, -0.5664062369248328, 0</d>
		</elem>
		<elem lid="314">
			<a>-0.5664062369248328, -0.8241261886220157, 0</a>
			<d>0.8241261886220157, -0.5664062369248328, 0</d>
		</elem>
		<elem lid="315">
			<a>-0.5664062369248328, -0.8241261886220157, 0</a>
			<d>0.8241261886220157, -0.5664062369248328, 0</d>
		</elem>
		<elem lid="316">
			<a>-0.5664062369248328, -0.8241261886220157, 0</a>
			<d>0.8241261886220157, -0.5664062369248328, 0</d>
		</elem>
		<elem lid="317">
			<a>-0.5224985647159486, -0.8526401643540923, 0</a>
			<d>0.8526401643540923, -0.5224985647159486, 0</d>
		</elem>
		<elem lid="318">
			<a>-0.5224985647159486, -0.8526401643540923, 0</a>
			<d>0.8526401643540923, -0.5224985647159486, 0</d>
		</elem>
		<elem lid="319">
			<a>-0.5224985647159486, -0.8526401643540923, 0</a>
			<d>0.8526401643540923, -0.5224985647159486, 0</d>
		</elem>
		<elem lid="320">
			<a>-0.5224985647159486, -0.8526401643540923, 0</a>
			<d>0.8526401643540923, -0.5224985647159486, 0</d>
		</elem>
		<elem lid="321">
			<a>-0.4771587602596086, -0.878817112661965, 0</a>
			<d>0.878817112661965, -0.4771587602596086, 0</d>
		</elem>
		<elem lid="322">
			<a>-0.4771587602596086, -0.878817112661965, 0</a>
			<d>0.878817112661965, -0.4771587602596086, 0</d>
		</elem>
		<elem lid="323">
			<a>-0.4771587602596086, -0.878817112661965, 0</a>
			<d>0.878817112661965, -0.4771587602596086, 0</d>
		</elem>
		<elem lid="324">
			<a>-0.4771587602596086, -0.878817112661965, 0</a>
			<d>0.878817112661965, -0.4771587602596086, 0</d>
		</elem>
		<elem lid="325">
			<a>-0.43051109680829514, -0.9025852843498604, 0</a>
			<d>0.9025852843498604, -0.43051109680829514, 0</d>
		</elem>
		<elem lid="326">
			<a>-0.43051109680829514, -0.9025852843498604, 0</a>
			<d>0.9025852843498604, -0.43051109680829514, 0</d>
		</elem>
		<elem lid="327">
			<a>-0.43051109680829514, -0.9025852843498604, 0</a>
			<d>0.9025852843498604, -0.43051109680829514, 0</d>
		</elem>
		<elem lid="328">
			<a>-0.43051109680829514, -0.9025852843498604, 0</a>
			<d>0.9025852843498604, -0.43051109680829514, 0</d>
		</elem>
		<elem lid="329">
			<a>-0.38268343236509034, -0.9238795325112864, 0</a>
			<d>0.9238795325112864, -0.38268343236509034, 0</d>
		</elem>
		<elem lid="330">
			<a>-0.38268343236509034, -0.9238795325112864, 0</a>
			<d>0.9238795325112864, -0.38268343236509034, 0</d>
		</elem>
		<elem lid="331">
			<a>-0.38268343236509034, -0.9238795325112864, 0</a>
			<d>0.9238795325112864, -0.38268343236509034, 0</d>
		</elem>
		<elem lid="332">
			<a>-0.38268343236509034, -0.9238795325112864, 0</a>
			<d>0.9238795325112864, -0.38268343236509034, 0</d>
		</elem>
		<elem lid="333">
			<a>-0.3338068592337704, -0.9426414910921787, 0</a>
			<d>0.9426414910921787, -0.3338068592337704, 0</d>
		</elem>
		<elem lid="334">
			<a>-0.3338068592337704, -0.9426414910921787, 0</a>
			<d>0.9426414910921787, -0.3338068592337704, 0</d>
		</elem>
		<elem lid="335">
			<a>-0.3338068592337704, -0.9426414910921787, 0</a>
			<d>0.9426414910921787, -0.3338068592337704, 0</d>
		</elem>
		<elem lid="336">
			<a>-0.3338068592337704, -0.9426414910921787, 0</a>
			<d>0.9426414910921787, -0.3338068592337704, 0</d>
		</elem>
		<elem lid="337">
			<a>-0.28401534470392265, -0.9588197348681932, 0</a>
			<d>0.9588197348681932, -0.28401534470392265, 0</d>
		</elem>
		<elem lid="338">
			<a>-0.28401534470392265, -0.9588197348681932, 0</a>
			<d>0.9588197348681932, -0.28401534470392265, 0</d>
		</elem>
		<elem lid="339">
			<a>-0.28401534470392265, -0.9588197348681932, 0</a>
			<d>0.9588197348681932, -0.28401534470392265, 0</d>
		</elem>
		<elem lid="340">
			<a>-0.28401534470392265, -0.9588197348681932, 0</a>
			<d>0.9588197348681932, -0.28401534470392265, 0</d>
		</elem>
		<elem lid="341">
			<a>-0.23344536385590606, -0.9723699203976766, 0</a>
			<d>0.9723699203976766, -0.23344536385590606, 0</d>
		</elem>
		<elem lid="342">
			<a>-0.23344536385590606, -0.9723699203976766, 0</a>
			<d>0.9723699203976766, -0.23344536385590606, 0</d>
		</elem>
		<elem lid="343">
			<a>-0.23344536385590606, -0.9723699203976766, 0</a>
			<d>0.9723699203976766, -0.23344536385590606, 0</d>
		</elem>
		<elem lid="344">
			<a>-0.23344536385590606, -0.9723699203976766, 0</a>
			<d>0.9723699203976766, -0.23344536385590606, 0</d>
		</elem>
		<elem lid="345">
			<a>-0.1822355254921478, -0.9832549075639545, 0</a>
			<d>0.9832549075639545, -0.1822355254921478, 0</d>
		</elem>
		<elem lid="346">
			<a>-0.1822355254921478, -0.9832549075639545, 0</a>
			<d>0.9832549075639545, -0.1822355254921478, 0</d>
		</elem>
		<elem lid="347">
			<a>-0.1822355254921478, -0.9832549075639545, 0</a>
			<d>0.9832549075639545, -0.1822355254921478, 0</d>
		</elem>
		<elem lid="348">
			<a>-0.1822355254921478, -0.9832549075639545, 0</a>
			<d>0.9832549075639545, -0.1822355254921478, 0</d>
		</elem>
		<elem lid="349">
			<a>-0.13052619222005252, -0.9914448613738102, 0</a>
			<d>0.9914448613738102, -0.13052619222005252, 0</d>
		</elem>
		<elem lid="350">
			<a>-0.13052619222005252, -0.9914448613738102, 0</a>
			<d>0.9914448613738102, -0.13052619222005252, 0</d>
		</elem>
		<elem lid="351">
			<a>-0.13052619222005252, -0.9914448613738102, 0</a>
			<d>0.9914448613738102, -0.13052619222005252, 0</d>
		</elem>
		<elem lid="352">
			<a>-0.13052619222005252, -0.9914448613738102, 0</a>
			<d>0.9914448613738102, -0.13052619222005252, 0</d>
		</elem>
		<elem lid="353">
			<a>-0.07845909572784468, -0.996917333733128, 0</a>
			<d>0.996917333733128, -0.07845909572784468, 0</d>
		</elem>
		<elem lid="354">
			<a>-0.07845909572784468, -0.996917333733128, 0</a>
			<d>0.996917333733128, -0.07845909572784468, 0</d>
		</elem>
		<elem lid="355">
			<a>-0.07845909572784468, -0.996917333733128, 0</a>
			<d>0.996917333733128, -0.07845909572784468, 0</d>
		</elem>
		<elem lid="356">
			<a>-0.07845909572784468, -0.996917333733128, 0</a>
			<d>0.996917333733128, -0.07845909572784468, 0</d>
		</elem>
		<elem lid="357">
			<a>-0.026176948307873482, -0.9996573249755575, 0</a>
			<d>0.9996573249755575, -0.026176948307873482, 0</d>
		</elem>
		<elem lid="358">
			<a>-0.026176948307873482, -0.9996573249755575, 0</a>
			<d>0.9996573249755575, -0.026176948307873482, 0</d>
		</elem>
		<elem lid="359">
			<a>-0.026176948307873482, -0.9996573249755575, 0</a>
			<d>0.9996573249755575, -0.026176948307873482, 0</d>
		</elem>
		<elem lid="360">
			<a>-0.026176948307873482, -0.9996573249755575, 0</a>
			<d>0.9996573249755575, -0.026176948307873482, 0</d>
		</elem>
		<elem lid="361">
			<a>0.026176948307873114, -0.9996573249755575, 0</a>
			<d>0.9996573249755575, 0.026176948307873114, 0</d>
		</elem>
		<elem lid="362">
			<a>0.026176948307873114, -0.9996573249755575, 0</a>
			<d>0.9996573249755575, 0.026176948307873114, 0</d>
		</elem>
		<elem lid="363">
			<a>0.026176948307873114, -0.9996573249755575, 0</a>
			<d>0.9996573249755575, 0.026176948307873114, 0</d>
		</elem>
		<elem lid="364">
			<a>0.026176948307873114, -0.9996573249755575, 0</a>
			<d>0.9996573249755575, 0.026176948307873114, 0</d>
		</elem>
		<elem lid="365">
			<a>0.07845909572784432, -0.9969173337331281, 0</a>
			<d>0.9969173337331281, 0.07845909572784432, 0</d>
		</elem>
		<elem lid="366">
			<a>0.07845909572784432, -0.9969173337331281, 0</a>
			<d>0.9969173337331281, 0.07845909572784432, 0</d>
		</elem>
		<elem lid="367">
			<a>0.07845909572784432, -0.9969173337331281, 0</a>
			<d>0.9969173337331281, 0.07845909572784432, 0</d>
		</elem>
		<elem lid="368">
			<a>0.07845909572784432, -0.9969173337331281, 0</a>
			<d>0.9969173337331281, 0.07845909572784432, 0</d>
		</elem>
		<elem lid="369">
			<a>0.13052619222005127, -0.9914448613738103, 0</a>
			<d>0.9914448613738103, 0.13052619222005127, 0</d>
		</elem>
		<elem lid="370">
			<a>0.13052619222005127, -0.9914448613738103, 0</a>
			<d>0.9914448613738103, 0.13052619222005127, 0</d>
		</elem>
		<elem lid="371">
			<a>0.13052619222005127, -0.9914448613738103, 0</a>
			<d>0.9914448613738103, 0.13052619222005127, 0</d>
		</elem>
		<elem lid="372">
			<a>0.13052619222005127, -0.9914448613738103, 0</a>
			<d>0.9914448613738103, 0.13052619222005127, 0</d>
		</elem>
		<elem lid="373">
			<a>0.18223552549214742, -0.9832549075639546, 0</a>
			<d>0.9832549075639546, 0.18223552549214742, 0</d>
		</elem>
		<elem lid="374">
			<a>0.18223552549214742, -0.9832549075639546, 0</a>
			<d>0.9832549075639546, 0.18223552549214742, 0</d>
		</elem>
		<elem lid="375">
			<a>0.18223552549214742, -0.9832549075639546, 0</a>
			<d>0.9832549075639546, 0.18223552549214742, 0</d>
		</elem>
		<elem lid="376">
			<a>0.18223552549214742, -0.9832549075639546, 0</a>
			<d>0.9832549075639546, 0.18223552549214742, 0</d>
		</elem>
		<elem lid="377">
			<a>0.23344536385590567, -0.9723699203976767, 0</a>
			<d>0.9723699203976767, 0.23344536385590567, 0</d>
		</elem>
		<elem lid="378">
			<a>0.23344536385590567, -0.9723699203976767, 0</a>
			<d>0.9723699203976767, 0.23344536385590567, 0</d>
		</elem>
		<elem lid="379">
			<a>0.23344536385590567, -0.9723699203976767, 0</a>
			<d>0.9723699203976767, 0.23344536385590567, 0</d>
		</elem>
		<elem lid="380">
			<a>0.23344536385590567, -0.9723699203976767, 0</a>
			<d>0.9723699203976767, 0.23344536385590567, 0</d>
		</elem>
		<elem lid="381">
			<a>0.28401534470392237, -0.9588197348681933, 0</a>
			<d>0.9588197348681933, 0.28401534470392237, 0</d>
		</elem>
		<elem lid="382">
			<a>0.28401534470392237, -0.9588197348681933, 0</a>
			<d>0.9588197348681933, 0.28401534470392237, 0</d>
		</elem>
		<elem lid="383">
			<a>0.28401534470392237, -0.9588197348681933, 0</a>
			<d>0.9588197348681933, 0.28401534470392237, 0</d>
		</elem>
		<elem lid="384">
			<a>0.28401534470392237, -0.9588197348681933, 0</a>
			<d>0.9588197348681933, 0.28401534470392237, 0</d>
		</elem>
		<elem lid="385">
			<a>0.33380685923377096, -0.9426414910921784, 0</a>
			<d>0.9426414910921784, 0.33380685923377096, 0</d>
		</elem>
		<elem lid="386">
			<a>0.33380685923377096, -0.9426414910921784, 0</a>
			<d>0.9426414910921784, 0.33380685923377096, 0</d>
		</elem>
		<elem lid="387">
			<a>0.33380685923377096, -0.9426414910921784, 0</a>
			<d>0.9426414910921784, 0.33380685923377096, 0</d>
		</elem>
		<elem lid="388">
			<a>0.33380685923377096, -0.9426414910921784, 0</a>
			<d>0.9426414910921784, 0.33380685923377096, 0</d>
		</elem>
		<elem lid="389">
			<a>0.3826834323650892, -0.9238795325112868, 0</a>
			<d>0.9238795325112868, 0.3826834323650892, 0</d>
		</elem>
		<elem lid="390">
			<a>0.3826834323650892, -0.9238795325112868, 0</a>
			<d>0.9238795325112868, 0.3826834323650892, 0</d>
		</elem>
		<elem lid="391">
			<a>0.3826834323650892, -0.9238795325112868, 0</a>
			<d>0.9238795325112868, 0.3826834323650892, 0</d>
		</elem>
		<elem lid="392">
			<a>0.3826834323650892, -0.9238795325112868, 0</a>
			<d>0.9238795325112868, 0.3826834323650892, 0</d>
		</elem>
		<elem lid="393">
			<a>0.43051109680829486, -0.9025852843498606, 0</a>
			<d>0.9025852843498606, 0.43051109680829486, 0</d>
		</elem>
		<elem lid="394">
			<a>0.43051109680829486, -0.9025852843498606, 0</a>
			<d>0.9025852843498606, 0.43051109680829486, 0</d>
		</elem>
		<elem lid="395">
			<a>0.43051109680829486, -0.9025852843498606, 0</a>
			<d>0.9025852843498606, 0.43051109680829486, 0</d>
		</elem>
		<elem lid="396">
			<a>0.43051109680829486, -0.9025852843498606, 0</a>
			<d>0.9025852843498606, 0.43051109680829486, 0</d>
		</elem>
		<elem lid="397">
			<a>0.47715876025960835, -0.8788171126619653, 0</a>
			<d>0.8788171126619653, 0.47715876025960835, 0</d>
		</elem>
		<elem lid="398">
			<a>0.47715876025960835, -0.8788171126619653, 0</a>
			<d>0.8788171126619653, 0.47715876025960835, 0</d>
		</elem>
		<elem lid="399">
			<a>0.47715876025960835, -0.8788171126619653, 0</a>
			<d>0.8788171126619653, 0.47715876025960835, 0</d>
		</elem>
		<elem lid="400">
			<a>0.47715876025960835, -0.8788171126619653, 0</a>
			<d>0.8788171126619653, 0.47715876025960835, 0</d>
		</elem>
		<elem lid="401">
			<a>0.5224985647159489, -0.8526401643540921, 0</a>
			<d>0.8526401643540921, 0.5224985647159489, 0</d>
		</elem>
		<elem lid="402">
			<a>0.5224985647159489, -0.8526401643540921, 0</a>
			<d>0.8526401643540921, 0.5224985647159489, 0</d>
		</elem>
		<elem lid="403">
			<a>0.5224985647159489, -0.8526401643540921, 0</a>
			<d>0.8526401643540921, 0.5224985647159489, 0</d>
		</elem>
		<elem lid="404">
			<a>0.5224985647159489, -0.8526401643540921, 0</a>
			<d>0.8526401643540921, 0.5224985647159489, 0</d>
		</elem>
		<elem lid="405">
			<a>0.5664062369248324, -0.8241261886220159, 0</a>
			<d>0.8241261886220159, 0.5664062369248324, 0</d>
		</elem>
		<elem lid="406">
			<a>0.5664062369248324, -0.8241261886220159, 0</a>
			<d>0.8241261886220159, 0.5664062369248324, 0</d>
		</elem>
		<elem lid="407">
			<a>0.5664062369248324, -0.8241261886220159, 0</a>
			<d>0.8241261886220159, 0.5664062369248324, 0</d>
		</elem>
		<elem lid="408">
			<a>0.5664062369248324, -0.8241261886220159, 0</a>
			<d>0.8241261886220159, 0.5664062369248324, 0</d>
		</elem>
		<elem lid="409">
			<a>0.6087614290087204, -0.7933533402912353, 0</a>
			<d>0.7933533402912353, 0.6087614290087204, 0</d>
		</elem>
		<elem lid="410">
			<a>0.6087614290087204, -0.7933533402912353, 0</a>
			<d>0.7933533402912353, 0.6087614290087204, 0</d>
		</elem>
		<elem lid="411">
			<a>0.6087614290087204, -0.7933533402912353, 0</a>
			<d>0.7933533402912353, 0.6087614290087204, 0</d>
		</elem>
		<elem lid="412">
			<a>0.6087614290087204, -0.7933533402912353, 0</a>
			<d>0.7933533402912353, 0.6087614290087204, 0</d>
		</elem>
		<elem lid="413">
			<a>0.6494480483301831, -0.7604059656000315, 0</a>
			<d>0.7604059656000315, 0.6494480483301831, 0</d>
		</elem>
		<elem lid="414">
			<a>0.6494480483301831, -0.7604059656000315, 0</a>
			<d>0.7604059656000315, 0.6494480483301831, 0</d>
		</elem>
		<elem lid="415">
			<a>0.6494480483301831, -0.7604059656000315, 0</a>
			<d>0.7604059656000315, 0.6494480483301831, 0</d>
		</elem>
		<elem lid="416">
			<a>0.6494480483301831, -0.7604059656000315, 0</a>
			<d>0.7604059656000315, 0.6494480483301831, 0</d>
		</elem>
		<elem lid="417">
			<a>0.6883545756937544, -0.7253743710122873, 0</a>
			<d>0.7253743710122873, 0.6883545756937544, 0</d>
		</elem>
		<elem lid="418">
			<a>0.6883545756937544, -0.7253743710122873, 0</a>
			<d>0.7253743710122873, 0.6883545756937544, 0</d>
		</elem>
		<elem lid="419">
			<a>0.6883545756937544, -0.7253743710122873, 0</a>
			<d>0.7253743710122873, 0.6883545756937544, 0</d>
		</elem>
		<elem lid="420">
			<a>0.6883545756937544, -0.7253743710122873, 0</a>
			<d>0.7253743710122873, 0.6883545756937544, 0</d>
		</elem>
		<elem lid="421">
			<a>0.7253743710122876, -0.688354575693754, 0</a>
			<d>0.688354575693754, 0.7253743710122876, 0</d>
		</elem>
		<elem lid="422">
			<a>0.7253743710122876, -0.688354575693754, 0</a>
			<d>0.688354575693754, 0.7253743710122876, 0</d>
		</elem>
		<elem lid="423">
			<a>0.7253743710122876, -0.688354575693754, 0</a>
			<d>0.688354575693754, 0.7253743710122876, 0</d>
		</elem>
		<elem lid="424">
			<a>0.7253743710122876, -0.688354575693754, 0</a>
			<d>0.688354575693754, 0.7253743710122876, 0</d>
		</elem>
		<elem lid="425">
			<a>0.7604059656000312, -0.6494480483301834, 0</a>
			<d>0.6494480483301834, 0.7604059656000312, 0</d>
		</elem>
		<elem lid="426">
			<a>0.7604059656000312, -0.6494480483301834, 0</a>
			<d>0.6494480483301834, 0.7604059656000312, 0</d>
		</elem>
		<elem lid="427">
			<a>0.7604059656000312, -0.6494480483301834, 0</a>
			<d>0.6494480483301834, 0.7604059656000312, 0</d>
		</elem>
		<elem lid="428">
			<a>0.7604059656000312, -0.6494480483301834, 0</a>
			<d>0.6494480483301834, 0.7604059656000312, 0</d>
		</elem>
		<elem lid="429">
			<a>0.793353340291235, -0.6087614290087209, 0</a>
			<d>0.6087614290087209, 0.793353340291235, 0</d>
		</elem>
		<elem lid="430">
			<a>0.793353340291235, -0.6087614290087209, 0</a>
			<d>0.6087614290087209, 0.793353340291235, 0</d>
		</elem>
		<elem lid="431">
			<a>0.793353340291235, -0.6087614290087209, 0</a>
			<d>0.6087614290087209, 0.793353340291235, 0</d>
		</elem>
		<elem lid="432">
			<a>0.793353340291235, -0.6087614290087209, 0</a>
			<d>0.6087614290087209, 0.793353340291235, 0</d>
		</elem>
		<elem lid="433">
			<a>0.8241261886220151, -0.5664062369248335, 0</a>
			<d>0.5664062369248335, 0.8241261886220151, 0</d>
		</elem>
		<elem lid="434">
			<a>0.8241261886220151, -0.5664062369248335, 0</a>
			<d>0.5664062369248335, 0.8241261886220151, 0</d>
		</elem>
		<elem lid="435">
			<a>0.8241261886220151, -0.5664062369248335, 0</a>
			<d>0.5664062369248335, 0.8241261886220151, 0</d>
		</elem>
		<elem lid="436">
			<a>0.8241261886220151, -0.5664062369248335, 0</a>
			<d>0.5664062369248335, 0.8241261886220151, 0</d>
		</elem>
		<elem lid="437">
			<a>0.8526401643540923, -0.5224985647159486, 0</a>
			<d>0.5224985647159486, 0.8526401643540923, 0</d>
		</elem>
		<elem lid="438">
			<a>0.8526401643540923, -0.5224985647159486, 0</a>
			<d>0.5224985647159486, 0.8526401643540923, 0</d>
		</elem>
		<elem lid="439">
			<a>0.8526401643540923, -0.5224985647159486, 0</a>
			<d>0.5224985647159486, 0.8526401643540923, 0</d>
		</elem>
		<elem lid="440">
			<a>0.8526401643540923, -0.5224985647159486, 0</a>
			<d>0.5224985647159486, 0.8526401643540923, 0</d>
		</elem>
		<elem lid="441">
			<a>0.878817112661965, -0.4771587602596087, 0</a>
			<d>0.4771587602596087, 0.878817112661965, 0</d>
		</elem>
		<elem lid="442">
			<a>0.878817112661965, -0.4771587602596087, 0</a>
			<d>0.4771587602596087, 0.878817112661965, 0</d>
		</elem>
		<elem lid="443">
			<a>0.878817112661965, -0.4771587602596087, 0</a>
			<d>0.4771587602596087, 0.878817112661965, 0</d>
		</elem>
		<elem lid="444">
			<a>0.878817112661965, -0.4771587602596087, 0</a>
			<d>0.4771587602596087, 0.878817112661965, 0</d>
		</elem>
		<elem lid="445">
			<a>0.9025852843498604, -0.4305110968082952, 0</a>
			<d>0.4305110968082952, 0.9025852843498604, 0</d>
		</elem>
		<elem lid="446">
			<a>0.9025852843498604, -0.4305110968082952, 0</a>
			<d>0.4305110968082952, 0.9025852843498604, 0</d>
		</elem>
		<elem lid="447">
			<a>0.9025852843498604, -0.4305110968082952, 0</a>
			<d>0.4305110968082952, 0.9025852843498604, 0</d>
		</elem>
		<elem lid="448">
			<a>0.9025852843498604, -0.4305110968082952, 0</a>
			<d>0.4305110968082952, 0.9025852843498604, 0</d>
		</elem>
		<elem lid="449">
			<a>0.9238795325112864, -0.3826834323650904, 0</a>
			<d>0.3826834323650904, 0.9238795325112864, 0</d>
		</elem>
		<elem lid="450">
			<a>0.9238795325112864, -0.3826834323650904, 0</a>
			<d>0.3826834323650904, 0.9238795325112864, 0</d>
		</elem>
		<elem lid="451">
			<a>0.9238795325112864, -0.3826834323650904, 0</a>
			<d>0.3826834323650904, 0.9238795325112864, 0</d>
		</elem>
		<elem lid="452">
			<a>0.9238795325112864, -0.3826834323650904, 0</a>
			<d>0.3826834323650904, 0.9238795325112864, 0</d>
		</elem>
		<elem lid="453">
			<a>0.9426414910921783, -0.3338068592337713, 0</a>
			<d>0.3338068592337713, 0.9426414910921783, 0</d>
		</elem>
		<elem lid="454">
			<a>0.9426414910921783, -0.3338068592337713, 0</a>
			<d>0.3338068592337713, 0.9426414910921783, 0</d>
		</elem>
		<elem lid="455">
			<a>0.9426414910921783, -0.3338068592337713, 0</a>
			<d>0.3338068592337713, 0.9426414910921783, 0</d>
		</elem>
		<elem lid="456">
			<a>0.9426414910921783, -0.3338068592337713, 0</a>
			<d>0.3338068592337713, 0.9426414910921783, 0</d>
		</elem>
		<elem lid="457">
			<a>0.9588197348681928, -0.2840153447039236, 0</a>
			<d>0.2840153447039236, 0.9588197348681928, 0</d>
		</elem>
		<elem lid="458">
			<a>0.9588197348681928, -0.2840153447039236, 0</a>
			<d>0.2840153447039236, 0.9588197348681928, 0</d>
		</elem>
		<elem lid="459">
			<a>0.9588197348681928, -0.2840153447039236, 0</a>
			<d>0.2840153447039236, 0.9588197348681928, 0</d>
		</elem>
		<elem lid="460">
			<a>0.9588197348681928, -0.2840153447039236, 0</a>
			<d>0.2840153447039236, 0.9588197348681928, 0</d>
		</elem>
		<elem lid="461">
			<a>0.9723699203976768, -0.23344536385590525, 0</a>
			<d>0.23344536385590525, 0.9723699203976768, 0</d>
		</elem>
		<elem lid="462">
			<a>0.9723699203976768, -0.23344536385590525, 0</a>
			<d>0.23344536385590525, 0.9723699203976768, 0</d>
		</elem>
		<elem lid="463">
			<a>0.9723699203976768, -0.23344536385590525, 0</a>
			<d>0.23344536385590525, 0.9723699203976768, 0</d>
		</elem>
		<elem lid="464">
			<a>0.9723699203976768, -0.23344536385590525, 0</a>
			<d>0.23344536385590525, 0.9723699203976768, 0</d>
		</elem>
		<elem lid="465">
			<a>0.9832549075639545, -0.18223552549214786, 0</a>
			<d>0.18223552549214786, 0.9832549075639545, 0</d>
		</elem>
		<elem lid="466">
			<a>0.9832549075639545, -0.18223552549214786, 0</a>
			<d>0.18223552549214786, 0.9832549075639545, 0</d>
		</elem>
		<elem lid="467">
			<a>0.9832549075639545, -0.18223552549214786, 0</a>
			<d>0.18223552549214786, 0.9832549075639545, 0</d>
		</elem>
		<elem lid="468">
			<a>0.9832549075639545, -0.18223552549214786, 0</a>
			<d>0.18223552549214786, 0.9832549075639545, 0</d>
		</elem>
		<elem lid="469">
			<a>0.9914448613738102, -0.13052619222005168, 0</a>
			<d>0.13052619222005168, 0.9914448613738102, 0</d>
		</elem>
		<elem lid="470">
			<a>0.9914448613738102, -0.13052619222005168, 0</a>
			<d>0.13052619222005168, 0.9914448613738102, 0</d>
		</elem>
		<elem lid="471">
			<a>0.9914448613738102, -0.13052619222005168, 0</a>
			<d>0.13052619222005168, 0.9914448613738102, 0</d>
		</elem>
		<elem lid="472">
			<a>0.9914448613738102, -0.13052619222005168, 0</a>
			<d>0.13052619222005168, 0.9914448613738102, 0</d>
		</elem>
		<elem lid="473">
			<a>0.9969173337331279, -0.07845909572784564, 0</a>
			<d>0.07845909572784564, 0.9969173337331279, 0</d>
		</elem>
		<elem lid="474">
			<a>0.9969173337331279, -0.07845909572784564, 0</a>
			<d>0.07845909572784564, 0.9969173337331279, 0</d>
		</elem>
		<elem lid="475">
			<a>0.9969173337331279, -0.07845909572784564, 0</a>
			<d>0.07845909572784564, 0.9969173337331279, 0</d>
		</elem>
		<elem lid="476">
			<a>0.9969173337331279, -0.07845909572784564, 0</a>
			<d>0.07845909572784564, 0.9969173337331279, 0</d>
		</elem>
		<elem lid="477">
			<a>0.9996573249755575, -0.026176948307873545, 0</a>
			<d>0.026176948307873545, 0.9996573249755575, 0</d>
		</elem>
		<elem lid="478">
			<a>0.9996573249755575, -0.026176948307873545, 0</a>
			<d>0.026176948307873545, 0.9996573249755575, 0</d>
		</elem>
		<elem lid="479">
			<a>0.9996573249755575, -0.026176948307873545, 0</a>
			<d>0.026176948307873545, 0.9996573249755575, 0</d>
		</elem>
		<elem lid="480">
			<a>0.9996573249755575, -0.026176948307873545, 0</a>
			<d>0.026176948307873545, 0.9996573249755575, 0</d>
		</elem>
	</ElementData>

	</MeshData>
    <Loads>
        <surface_load type="pressure" surface="PressureLoad1">
            <pressure lc="1">13.9868</pressure>
            <linear>0</linear>
            <symmetric_stiffness>0</symmetric_stiffness>
        </surface_load>
    </Loads>
	<LoadData>
		<load_controller id="1" type="loadcurve">
			<interpolate>LINEAR</interpolate>
			<points>
				<point>0,1.4</point>
				<point>10,1.4</point>
			</points>
		</load_controller>
	</LoadData>
    <Output>
        <plotfile type="vtk">
            <var type="displacement"/>
            <var type="relative volume"/>
            <var type="stress"/>
			<var type="SPR stress"/>
			<var type="Lagrange strain"/>
			<var type="SPR principal stress"/>
            <var type="strain energy density"/>
            <var type="acceleration"/>
			<var type="velocity"/>
        </plotfile>
    </Output>
</febio_spec>
