<?xml version='1.0' encoding='utf-8'?>
<febio_spec version="4.0">
  <Module type="solid" />
  <Control>
    <analysis>STATIC</analysis>
    <time_steps>1440</time_steps>
    <step_size>1</step_size>
    <solver>
      <diverge_reform>1</diverge_reform>
      <reform_each_time_step>1</reform_each_time_step>
      <dtol>0</dtol>
      <etol>1e-16</etol>
      <rtol>1e-16</rtol>
      <lstol>0.0</lstol>
      <min_residual>1e-4</min_residual>
      <rhoi>0</rhoi>
      <linear_solver type="mkl_dss" />
      <max_refs>1000</max_refs>
      <qn_method type="BFGS">
        <max_ups>0</max_ups>
      </qn_method>
      <symmetric_stiffness>0</symmetric_stiffness>
    </solver>
  </Control>
  <Globals>
    <Constants>
      <T>0</T>
      <R>0</R>
      <Fc>0</Fc>
    </Constants>
  </Globals>
  <Material>
    <material id="1" name="Material1" type="FSG">
      <density>1</density>
      <k>1000.0</k>
      <a_val lc="2" type="math"> (0.1 + (1.0 - 0.1) * exp(-abs((Z - 0.0) / 3.0) ^ 5.0))</a_val>
      <e_r type="math"> X/sqrt(X^2 + Y^2), Y/sqrt(X^2 + Y^2), 0 </e_r>
      <e_t type="math"> -Y/sqrt(X^2 + Y^2), X/sqrt(X^2 + Y^2), 0 </e_t>
      <e_z type="math"> 0, 0, 1 </e_z>
    </material>
  </Material>
  <Mesh>
    <Nodes name="Object01">
      <node id="1">0.6468, 0.0, -7.5</node>
      <node id="2">0.65685, 0.0, -7.5</node>
      <node id="3">0.6669, 0.0, -7.5</node>
      <node id="4">0.67695, 0.0, -7.5</node>
      <node id="5">0.687, 0.0, -7.5</node>
      <node id="6">0.6247608244437695, 0.16740415837231046, -7.5</node>
      <node id="7">0.6344683789979746, 0.1700052897755908, -7.5</node>
      <node id="8">0.6441759335521797, 0.17260642117887112, -7.5</node>
      <node id="9">0.653883488106385, 0.17520755258215145, -7.5</node>
      <node id="10">0.6635910426605901, 0.1778086839854318, -7.5</node>
      <node id="11">0.5601452311677749, 0.32339999999999997, -7.5</node>
      <node id="12">0.5688487864758085, 0.32842499999999997, -7.5</node>
      <node id="13">0.5775523417838422, 0.33344999999999997, -7.5</node>
      <node id="14">0.5862558970918758, 0.33847499999999997, -7.5</node>
      <node id="15">0.5949594523999093, 0.34349999999999997, -7.5</node>
      <node id="16">0.4573566660714591, 0.457356666071459, -7.5</node>
      <node id="17">0.4644630892223839, 0.46446308922238383, -7.5</node>
      <node id="18">0.4715695123733087, 0.47156951237330863, -7.5</node>
      <node id="19">0.4786759355242335, 0.47867593552423343, -7.5</node>
      <node id="20">0.4857823586751583, 0.48578235867515823, -7.5</node>
<!-- ... 1065 like lines cut -->
    </Nodes>
    <Elements type="hex8" mat="1" name="Part1">
      <elem id="1">1, 6, 41, 36, 2, 7, 42, 37</elem>
      <elem id="2">2, 7, 42, 37, 3, 8, 43, 38</elem>
      <elem id="3">3, 8, 43, 38, 4, 9, 44, 39</elem>
      <elem id="4">4, 9, 44, 39, 5, 10, 45, 40</elem>
      <elem id="5">6, 11, 46, 41, 7, 12, 47, 42</elem>
      <elem id="6">7, 12, 47, 42, 8, 13, 48, 43</elem>
      <elem id="7">8, 13, 48, 43, 9, 14, 49, 44</elem>
      <elem id="8">9, 14, 49, 44, 10, 15, 50, 45</elem>
      <elem id="9">11, 16, 51, 46, 12, 17, 52, 47</elem>
      <elem id="10">12, 17, 52, 47, 13, 18, 53, 48</elem>
      <elem id="11">13, 18, 53, 48, 14, 19, 54, 49</elem>
      <elem id="12">14, 19, 54, 49, 15, 20, 55, 50</elem>
      <elem id="13">16, 21, 56, 51, 17, 22, 57, 52</elem>
      <elem id="14">17, 22, 57, 52, 18, 23, 58, 53</elem>
      <elem id="15">18, 23, 58, 53, 19, 24, 59, 54</elem>
      <elem id="16">19, 24, 59, 54, 20, 25, 60, 55</elem>
      <elem id="17">21, 26, 61, 56, 22, 27, 62, 57</elem>
      <elem id="18">22, 27, 62, 57, 23, 28, 63, 58</elem>
      <elem id="19">23, 28, 63, 58, 24, 29, 64, 59</elem>
      <elem id="20">24, 29, 64, 59, 25, 30, 65, 60</elem>
<!-- ... 700 like lines cut -->
    </Elements>
    <NodeSet name="FixXs">
		31, 32, 33, 34, 35, 66, 67, 68, 69, 70, 101, 102, 103, 104, 105, 136, 137, 138, 139, 140, 171, 172, 173, 174, 175, 206, 207, 208, 209, 210, 241, 242, 243, 244, 245, 276, 277, 278, 279, 280, 311, 312, 313, 314, 315, 346, 347, 348, 349, 350, 381, 382, 383, 384, 385, 416, 417, 418, 419, 420, 451, 452, 453, 454, 455, 486, 487, 488, 489, 490, 521, 522, 523, 524, 525, 556, 557, 558, 559, 560, 591, 592
	</NodeSet>
    <NodeSet name="FixYs">
		1, 2, 3, 4, 5, 36, 37, 38, 39, 40, 71, 72, 73, 74, 75, 106, 107, 108, 109, 110, 141, 142, 143, 144, 145, 176, 177, 178, 179, 180, 211, 212, 213, 214, 215, 246, 247, 248, 249, 250, 281, 282, 283, 284, 285, 316, 317, 318, 319, 320, 351, 352, 353, 354, 355, 386, 387, 388, 389, 390, 421, 422, 423, 424, 425, 456, 457, 458, 459, 460, 491, 492, 493, 494, 495, 526, 527, 528, 529, 530, 561, 562, 563, 564
	</NodeSet>
    <Surface name="FixZs">
      <quad4 id="1">1, 2, 7, 6</quad4>
      <quad4 id="2">2, 3, 8, 7</quad4>
      <quad4 id="3">3, 4, 9, 8</quad4>
      <quad4 id="4">4, 5, 10, 9</quad4>
      <quad4 id="5">6, 7, 12, 11</quad4>
      <quad4 id="6">7, 8, 13, 12</quad4>
      <quad4 id="7">8, 9, 14, 13</quad4>
      <quad4 id="8">9, 10, 15, 14</quad4>
      <quad4 id="9">11, 12, 17, 16</quad4>
      <quad4 id="10">12, 13, 18, 17</quad4>
      <quad4 id="11">13, 14, 19, 18</quad4>
      <quad4 id="12">14, 15, 20, 19</quad4>
      <quad4 id="13">16, 17, 22, 21</quad4>
      <quad4 id="14">17, 18, 23, 22</quad4>
      <quad4 id="15">18, 19, 24, 23</quad4>
      <quad4 id="16">19, 20, 25, 24</quad4>
      <quad4 id="17">21, 22, 27, 26</quad4>
      <quad4 id="18">22, 23, 28, 27</quad4>
      <quad4 id="19">23, 24, 29, 28</quad4>
      <quad4 id="20">24, 25, 30, 29</quad4>
<!-- ... 28 like lines cut -->
    </Surface>
    <Surface name="PressureLoad1">
      <quad4 id="1">1, 36, 41, 6</quad4>
      <quad4 id="2">6, 41, 46, 11</quad4>
      <quad4 id="3">11, 46, 51, 16</quad4>
      <quad4 id="4">16, 51, 56, 21</quad4>
      <quad4 id="5">21, 56, 61, 26</quad4>
      <quad4 id="6">26, 61, 66, 31</quad4>
      <quad4 id="7">36, 71, 76, 41</quad4>
      <quad4 id="8">41, 76, 81, 46</quad4>
      <quad4 id="9">46, 81, 86, 51</quad4>
      <quad4 id="10">51, 86, 91, 56</quad4>
      <quad4 id="11">56, 91, 96, 61</quad4>
      <quad4 id="12">61, 96, 101, 66</quad4>
      <quad4 id="13">71, 106, 111, 76</quad4>
      <quad4 id="14">76, 111, 116, 81</quad4>
      <quad4 id="15">81, 116, 121, 86</quad4>
      <quad4 id="16">86, 121, 126, 91</quad4>
      <quad4 id="17">91, 126, 131, 96</quad4>
      <quad4 id="18">96, 131, 136, 101</quad4>
      <quad4 id="19">106, 141, 146, 111</quad4>
      <quad4 id="20">111, 146, 151, 116</quad4>
<!-- ... 160 like lines cut -->
    </Surface>
  </Mesh>
  <MeshDomains>
    <SolidDomain name="Part1" mat="Material1" type="three-field-solid">
      <laugon>1</laugon>
      <atol>1e-4</atol>
      <maxaug>6</maxaug>
    </SolidDomain>
  </MeshDomains>
  <Boundary>
    <bc name="FixYs" type="zero displacement" node_set="FixYs">
      <x_dof>0</x_dof>
      <y_dof>1</y_dof>
      <z_dof>0</z_dof>
    </bc>
    <bc name="FixZs" type="zero displacement" node_set="@surface:FixZs">
      <x_dof>0</x_dof>
      <y_dof>0</y_dof>
      <z_dof>1</z_dof>
    </bc>
    <bc name="FixXs" type="zero displacement" node_set="FixXs">
      <x_dof>1</x_dof>
      <y_dof>0</y_dof>
      <z_dof>0</z_dof>
    </bc>
  </Boundary>
  <Loads>
    <surface_load type="pressure" surface="PressureLoad1">
      <pressure lc="1">13.9868</pressure>
      <linear>0</linear>
      <symmetric_stiffness>0</symmetric_stiffness>
    </surface_load>
  </Loads>
  <LoadData>
    <load_controller id="1" type="loadcurve">
      <interpolate>LINEAR</interpolate>
      <points>
        <point>0,1.0</point>
        <point>1,1.0</point>
      </points>
    </load_controller>
    <load_controller id="2" type="loadcurve">
      <interpolate>LINEAR</interpolate>
      <points>
        <point>0,0.0</point>
        <point>1,0.0</point>
        <point>11,1.0</point>
      </points>
    </load_controller>
  </LoadData>
  <Output>
    <plotfile type="vtk">
      <var type="displacement" />
      <var type="relative volume" />
      <var type="stress" />
      <var type="SPR stress" />
      <var type="Lagrange strain" />
      <var type="SPR principal stress" />
      <var type="strain energy density" />
      <var type="acceleration" />
      <var type="velocity" />
    </plotfile>
  </Output>
</febio_spec>