<?xml version='1.0' encoding='utf-8'?>
<febio_spec version="4.0">
  <Module type="solid" />
  <Control>
    <analysis>STATIC</analysis>
    <time_steps>1441</time_steps>
    <step_size>1</step_size>
    <solver>
      <diverge_reform>1</diverge_reform>
      <reform_each_time_step>1</reform_each_time_step>
      <dtol>0</dtol>
      <etol>1e-16</etol>
      <rtol>1e-16</rtol>
      <lstol>0.0</lstol>
      <min_residual>1e-16</min_residual>
      <rhoi>0</rhoi>
      <linear_solver type="mkl_dss" />
      <max_refs>1000</max_refs>
      <qn_method type="Broyden">
        <max_ups>0</max_ups>
      </qn_method>
      <symmetric_stiffness>0</symmetric_stiffness>
    </solver>
  </Control>
  <Globals>
    <Constants>
      <T>0</T>
      <R>0</R>
      <Fc>0</Fc>
    </Constants>
  </Globals>
  <Material>
    <material id="1" name="Material1" type="FSG">
      <density>1</density>
      <k>1000.0</k>
      <elastin_injury_val lc="2" type="math"> 0.6 * exp(-abs((atan2(Y,Z) - pi/4.0) / (pi/8.0)) ^ 5.0)</elastin_injury_val>
      <e_r type="math"> sin(atan2(X,(sqrt(Y^2 + Z^2) - 10.0))), cos(atan2(X,(sqrt(Y^2 + Z^2) - 10.0))) * sin(atan2(Y,Z)), cos(atan2(X,(sqrt(Y^2 + Z^2) - 10.0))) * cos(atan2(Y,Z)) </e_r>
      <e_t type="math"> cos(atan2(X,(sqrt(Y^2 + Z^2) - 10.0))), -sin(atan2(X,(sqrt(Y^2 + Z^2) - 10.0))) * sin(atan2(Y,Z)), -sin(atan2(X,(sqrt(Y^2 + Z^2) - 10.0))) * cos(atan2(Y,Z)) </e_t>
      <e_z type="math"> 0, -cos(atan2(Y,Z)), sin(atan2(Y,Z)) </e_z>
    </material>
  </Material>
  <Mesh>
    <Nodes name="Object01">
      <node id="1">-0.0, 10.6468, 0.0</node>
      <node id="2">-0.0, 10.6669, 0.0</node>
      <node id="3">-0.0, 10.687000000000001, 0.0</node>
      <node id="4">-0.24751964405374008, 10.5975652816283, 0.0</node>
      <node id="5">-0.2552115810442784, 10.616135260231777, 0.0</node>
      <node id="6">-0.2629035180348167, 10.634705238835254, 0.0</node>
      <node id="7">-0.457356666071459, 10.457356666071458, 0.0</node>
      <node id="8">-0.4715695123733086, 10.471569512373309, 0.0</node>
      <node id="9">-0.4857823586751582, 10.485782358675158, 0.0</node>
      <node id="10">-0.5975652816283002, 10.24751964405374, 0.0</node>
      <node id="11">-0.6161352602317771, 10.255211581044279, 0.0</node>
      <node id="12">-0.634705238835254, 10.262903518034816, 0.0</node>
      <node id="13">-0.6468, 10.0, 0.0</node>
      <node id="14">-0.6669, 10.0, 0.0</node>
      <node id="15">-0.687, 10.0, 0.0</node>
      <node id="16">-0.5975652816283002, 9.75248035594626, 0.0</node>
      <node id="17">-0.6161352602317771, 9.744788418955721, 0.0</node>
      <node id="18">-0.634705238835254, 9.737096481965184, 0.0</node>
      <node id="19">-0.4573566660714591, 9.542643333928542, 0.0</node>
      <node id="20">-0.4715695123733087, 9.528430487626691, 0.0</node>
<!-- ... 1180 like lines cut -->
    </Nodes>
    <Elements type="hex27" mat="1" name="Part1">
      <elem id="1">1, 7, 103, 97, 3, 9, 105, 99, 4, 55, 100, 49, 6, 57, 102, 51, 2, 8, 104, 98, 5, 56, 101, 50, 52, 54, 53</elem>
      <elem id="2">7, 13, 109, 103, 9, 15, 111, 105, 10, 61, 106, 55, 12, 63, 108, 57, 8, 14, 110, 104, 11, 62, 107, 56, 58, 60, 59</elem>
      <elem id="3">13, 19, 115, 109, 15, 21, 117, 111, 16, 67, 112, 61, 18, 69, 114, 63, 14, 20, 116, 110, 17, 68, 113, 62, 64, 66, 65</elem>
      <elem id="4">19, 25, 121, 115, 21, 27, 123, 117, 22, 73, 118, 67, 24, 75, 120, 69, 20, 26, 122, 116, 23, 74, 119, 68, 70, 72, 71</elem>
      <elem id="5">25, 31, 127, 121, 27, 33, 129, 123, 28, 79, 124, 73, 30, 81, 126, 75, 26, 32, 128, 122, 29, 80, 125, 74, 76, 78, 77</elem>
      <elem id="6">31, 37, 133, 127, 33, 39, 135, 129, 34, 85, 130, 79, 36, 87, 132, 81, 32, 38, 134, 128, 35, 86, 131, 80, 82, 84, 83</elem>
      <elem id="7">37, 43, 139, 133, 39, 45, 141, 135, 40, 91, 136, 85, 42, 93, 138, 87, 38, 44, 140, 134, 41, 92, 137, 86, 88, 90, 89</elem>
      <elem id="8">43, 1, 97, 139, 45, 3, 99, 141, 46, 49, 142, 91, 48, 51, 144, 93, 44, 2, 98, 140, 47, 50, 143, 92, 94, 96, 95</elem>
      <elem id="9">97, 103, 199, 193, 99, 105, 201, 195, 100, 151, 196, 145, 102, 153, 198, 147, 98, 104, 200, 194, 101, 152, 197, 146, 148, 150, 149</elem>
      <elem id="10">103, 109, 205, 199, 105, 111, 207, 201, 106, 157, 202, 151, 108, 159, 204, 153, 104, 110, 206, 200, 107, 158, 203, 152, 154, 156, 155</elem>
      <elem id="11">109, 115, 211, 205, 111, 117, 213, 207, 112, 163, 208, 157, 114, 165, 210, 159, 110, 116, 212, 206, 113, 164, 209, 158, 160, 162, 161</elem>
      <elem id="12">115, 121, 217, 211, 117, 123, 219, 213, 118, 169, 214, 163, 120, 171, 216, 165, 116, 122, 218, 212, 119, 170, 215, 164, 166, 168, 167</elem>
      <elem id="13">121, 127, 223, 217, 123, 129, 225, 219, 124, 175, 220, 169, 126, 177, 222, 171, 122, 128, 224, 218, 125, 176, 221, 170, 172, 174, 173</elem>
      <elem id="14">127, 133, 229, 223, 129, 135, 231, 225, 130, 181, 226, 175, 132, 183, 228, 177, 128, 134, 230, 224, 131, 182, 227, 176, 178, 180, 179</elem>
      <elem id="15">133, 139, 235, 229, 135, 141, 237, 231, 136, 187, 232, 181, 138, 189, 234, 183, 134, 140, 236, 230, 137, 188, 233, 182, 184, 186, 185</elem>
      <elem id="16">139, 97, 193, 235, 141, 99, 195, 237, 142, 145, 238, 187, 144, 147, 240, 189, 140, 98, 194, 236, 143, 146, 239, 188, 190, 192, 191</elem>
      <elem id="17">193, 199, 295, 289, 195, 201, 297, 291, 196, 247, 292, 241, 198, 249, 294, 243, 194, 200, 296, 290, 197, 248, 293, 242, 244, 246, 245</elem>
      <elem id="18">199, 205, 301, 295, 201, 207, 303, 297, 202, 253, 298, 247, 204, 255, 300, 249, 200, 206, 302, 296, 203, 254, 299, 248, 250, 252, 251</elem>
      <elem id="19">205, 211, 307, 301, 207, 213, 309, 303, 208, 259, 304, 253, 210, 261, 306, 255, 206, 212, 308, 302, 209, 260, 305, 254, 256, 258, 257</elem>
      <elem id="20">211, 217, 313, 307, 213, 219, 315, 309, 214, 265, 310, 259, 216, 267, 312, 261, 212, 218, 314, 308, 215, 266, 311, 260, 262, 264, 263</elem>
<!-- ... 76 like lines cut -->
    </Elements>
    <NodeSet name="FixXs">
		1, 2, 3, 25, 26, 27, 1153, 1154, 1155, 1177, 1178, 1179
	</NodeSet>
    <NodeSet name="FixYs">
		1153, 1154, 1155, 1156, 1157, 1158, 1159, 1160, 1161, 1162, 1163, 1164, 1165, 1166, 1167, 1168, 1169, 1170, 1171, 1172, 1173, 1174, 1175, 1176, 1177, 1178, 1179, 1180, 1181, 1182, 1183, 1184, 1185, 1186, 1187, 1188, 1189, 1190, 1191, 1192, 1193, 1194, 1195, 1196, 1197, 1198, 1199, 1200
	</NodeSet>
    <NodeSet name="FixZs">
		1, 2, 3, 4, 5, 6, 7, 8, 9, 10, 11, 12, 13, 14, 15, 16, 17, 18, 19, 20, 21, 22, 23, 24, 25, 26, 27, 28, 29, 30, 31, 32, 33, 34, 35, 36, 37, 38, 39, 40, 41, 42, 43, 44, 45, 46, 47, 48
	</NodeSet>
    <Surface name="PressureLoad1">
      <quad9 id="1">1, 97, 103, 7, 49, 100, 55, 4, 52</quad9>
      <quad9 id="2">7, 103, 109, 13, 55, 106, 61, 10, 58</quad9>
      <quad9 id="3">13, 109, 115, 19, 61, 112, 67, 16, 64</quad9>
      <quad9 id="4">19, 115, 121, 25, 67, 118, 73, 22, 70</quad9>
      <quad9 id="5">25, 121, 127, 31, 73, 124, 79, 28, 76</quad9>
      <quad9 id="6">31, 127, 133, 37, 79, 130, 85, 34, 82</quad9>
      <quad9 id="7">37, 133, 139, 43, 85, 136, 91, 40, 88</quad9>
      <quad9 id="8">43, 139, 97, 1, 91, 142, 49, 46, 94</quad9>
      <quad9 id="9">97, 193, 199, 103, 145, 196, 151, 100, 148</quad9>
      <quad9 id="10">103, 199, 205, 109, 151, 202, 157, 106, 154</quad9>
      <quad9 id="11">109, 205, 211, 115, 157, 208, 163, 112, 160</quad9>
      <quad9 id="12">115, 211, 217, 121, 163, 214, 169, 118, 166</quad9>
      <quad9 id="13">121, 217, 223, 127, 169, 220, 175, 124, 172</quad9>
      <quad9 id="14">127, 223, 229, 133, 175, 226, 181, 130, 178</quad9>
      <quad9 id="15">133, 229, 235, 139, 181, 232, 187, 136, 184</quad9>
      <quad9 id="16">139, 235, 193, 97, 187, 238, 145, 142, 190</quad9>
      <quad9 id="17">193, 289, 295, 199, 241, 292, 247, 196, 244</quad9>
      <quad9 id="18">199, 295, 301, 205, 247, 298, 253, 202, 250</quad9>
      <quad9 id="19">205, 301, 307, 211, 253, 304, 259, 208, 256</quad9>
      <quad9 id="20">211, 307, 313, 217, 259, 310, 265, 214, 262</quad9>
<!-- ... 76 like lines cut -->
    </Surface>
  </Mesh>
  <MeshDomains>
    <SolidDomain name="Part1" mat="Material1">
      <laugon>1</laugon>
      <atol>1e-3</atol>
      <minaug>0</minaug>
      <maxaug>0</maxaug>
    </SolidDomain>
  </MeshDomains>
  <Boundary>
    <bc name="FixXs" type="zero displacement" node_set="FixXs">
      <x_dof>1</x_dof>
      <y_dof>0</y_dof>
      <z_dof>0</z_dof>
    </bc>
    <bc name="FixYs" type="zero displacement" node_set="FixYs">
      <x_dof>0</x_dof>
      <y_dof>1</y_dof>
      <z_dof>0</z_dof>
    </bc>
    <bc name="FixZs" type="zero displacement" node_set="FixZs">
      <x_dof>0</x_dof>
      <y_dof>0</y_dof>
      <z_dof>1</z_dof>
    </bc>
  </Boundary>
  <Loads>
    <surface_load type="pressure" surface="PressureLoad1">
      <pressure lc="1">13.9868</pressure>
      <linear>0</linear>
      <symmetric_stiffness>0</symmetric_stiffness>
    </surface_load>
  </Loads>
  <LoadData>
    <load_controller id="1" type="loadcurve">
      <interpolate>LINEAR</interpolate>
      <points>
        <point>0,1.0</point>
        <point>1,1.0</point>
        <point>2,1.0</point>
      </points>
    </load_controller>
    <load_controller id="2" type="loadcurve">
      <interpolate>LINEAR</interpolate>
      <points>
        <point>0,0.0</point>
        <point>1,0.0</point>
        <point>101,1.0</point>
      </points>
    </load_controller>
  </LoadData>
  <Output>
    <plotfile type="vtk">
      <var type="displacement" />
      <var type="relative volume" />
      <var type="stress" />
      <var type="SPR stress" />
      <var type="SPR principal stress" />
      <var type="deformation gradient" />
      <var type="strain energy density" />
      <var type="acceleration" />
      <var type="velocity" />
    </plotfile>
  </Output>
</febio_spec>