<?xml version="1.0" encoding="ISO-8859-1"?>
<febio_spec version="3.0">
    <Module type="solid"/>
	<Control>
		<analysis>STATIC</analysis>
		<time_steps>720</time_steps>
		<step_size>1</step_size>
		<solver>
			<diverge_reform>1</diverge_reform>
			<reform_each_time_step>1</reform_each_time_step>
	        <dtol>0</dtol>
	        <etol>1e-16</etol>
	        <rtol>1e-16</rtol>
			<lstol>0.0</lstol>
			<min_residual>1e-10</min_residual>
            <qn_method type="Broyden"/>
                <max_refs>1000</max_refs>
                <max_ups>0</max_ups>
            <symmetric_stiffness>0</symmetric_stiffness>
		</solver>
	</Control>
    <Globals>
        <Constants>
            <T>0</T>
            <R>0</R>
            <Fc>0</Fc>
        </Constants>
    </Globals>
    <Material>
        <material id="1" name="Material1" type="FSG">
            <density>1</density>
		 	<k>1000000.0</k>
		 	<dt>1.0</dt>
        </material>
    </Material>

<Geometry>
	<Nodes name="Object01">
		<node id="1">0.6468, 0.0, -0.0201</node>
		<node id="2">0.65685, 0.0, -0.0201</node>
		<node id="3">0.6669, 0.0, -0.0201</node>
		<node id="4">0.67695, 0.0, -0.0201</node>
		<node id="5">0.687, 0.0, -0.0201</node>
		<node id="6">0.6151433547397054, 0.19987219196171602, -0.0201</node>
		<node id="7">0.6247014727284718, 0.20297781275518426, -0.0201</node>
		<node id="8">0.634259590717238, 0.20608343354865247, -0.0201</node>
		<node id="9">0.6438177087060043, 0.2091890543421207, -0.0201</node>
		<node id="10">0.6533758266947706, 0.21229467513558892, -0.0201</node>
		<node id="11">0.5232721919617161, 0.38017950118277155, -0.0201</node>
		<node id="12">0.5314028127551843, 0.3860867429683109, -0.0201</node>
		<node id="13">0.5395334335486526, 0.3919939847538503, -0.0201</node>
		<node id="14">0.5476640543421208, 0.39790122653938964, -0.0201</node>
		<node id="15">0.555794675135589, 0.403808468324929, -0.0201</node>
		<node id="16">0.38017950118277166, 0.523272191961716, -0.0201</node>
		<node id="17">0.386086742968311, 0.5314028127551843, -0.0201</node>
		<node id="18">0.3919939847538504, 0.5395334335486525, -0.0201</node>
		<node id="19">0.3979012265393897, 0.5476640543421207, -0.0201</node>
		<node id="20">0.40380846832492906, 0.5557946751355889, -0.0201</node>
<!-- ... 190 like lines cut -->
	</Nodes>
	<Elements type="hex8" mat="1" name="Part1">
		<elem id="1">1, 6, 111, 106, 2, 7, 112, 107</elem>
		<elem id="2">2, 7, 112, 107, 3, 8, 113, 108</elem>
		<elem id="3">3, 8, 113, 108, 4, 9, 114, 109</elem>
		<elem id="4">4, 9, 114, 109, 5, 10, 115, 110</elem>
		<elem id="5">6, 11, 116, 111, 7, 12, 117, 112</elem>
		<elem id="6">7, 12, 117, 112, 8, 13, 118, 113</elem>
		<elem id="7">8, 13, 118, 113, 9, 14, 119, 114</elem>
		<elem id="8">9, 14, 119, 114, 10, 15, 120, 115</elem>
		<elem id="9">11, 16, 121, 116, 12, 17, 122, 117</elem>
		<elem id="10">12, 17, 122, 117, 13, 18, 123, 118</elem>
		<elem id="11">13, 18, 123, 118, 14, 19, 124, 119</elem>
		<elem id="12">14, 19, 124, 119, 15, 20, 125, 120</elem>
		<elem id="13">16, 21, 126, 121, 17, 22, 127, 122</elem>
		<elem id="14">17, 22, 127, 122, 18, 23, 128, 123</elem>
		<elem id="15">18, 23, 128, 123, 19, 24, 129, 124</elem>
		<elem id="16">19, 24, 129, 124, 20, 25, 130, 125</elem>
		<elem id="17">21, 26, 131, 126, 22, 27, 132, 127</elem>
		<elem id="18">22, 27, 132, 127, 23, 28, 133, 128</elem>
		<elem id="19">23, 28, 133, 128, 24, 29, 134, 129</elem>
		<elem id="20">24, 29, 134, 129, 25, 30, 135, 130</elem>
<!-- ... 60 like lines cut -->
	</Elements>
	<NodeSet name="FixXs">
		<node id="26"/>
		<node id="76"/>
		<node id="131"/>
		<node id="181"/>
	</NodeSet>
	<NodeSet name="FixYs">
		<node id="1"/>
		<node id="51"/>
		<node id="106"/>
		<node id="156"/>
	</NodeSet>
	<Surface name="FixZs">
		<quad4 id="1">1, 2, 7, 6</quad4>
		<quad4 id="2">106, 107, 112, 111</quad4>
		<quad4 id="3">2, 3, 8, 7</quad4>
		<quad4 id="4">107, 108, 113, 112</quad4>
		<quad4 id="5">3, 4, 9, 8</quad4>
		<quad4 id="6">108, 109, 114, 113</quad4>
		<quad4 id="7">4, 5, 10, 9</quad4>
		<quad4 id="8">109, 110, 115, 114</quad4>
		<quad4 id="9">6, 7, 12, 11</quad4>
		<quad4 id="10">111, 112, 117, 116</quad4>
		<quad4 id="11">7, 8, 13, 12</quad4>
		<quad4 id="12">112, 113, 118, 117</quad4>
		<quad4 id="13">8, 9, 14, 13</quad4>
		<quad4 id="14">113, 114, 119, 118</quad4>
		<quad4 id="15">9, 10, 15, 14</quad4>
		<quad4 id="16">114, 115, 120, 119</quad4>
		<quad4 id="17">11, 12, 17, 16</quad4>
		<quad4 id="18">116, 117, 122, 121</quad4>
		<quad4 id="19">12, 13, 18, 17</quad4>
		<quad4 id="20">117, 118, 123, 122</quad4>
<!-- ... 140 like lines cut -->
	</Surface>
	<Surface name="PressureLoad1">
		<quad4 id="1">1, 106, 111, 6</quad4>
		<quad4 id="2">6, 111, 116, 11</quad4>
		<quad4 id="3">11, 116, 121, 16</quad4>
		<quad4 id="4">16, 121, 126, 21</quad4>
		<quad4 id="5">21, 126, 131, 26</quad4>
		<quad4 id="6">26, 131, 136, 31</quad4>
		<quad4 id="7">31, 136, 141, 36</quad4>
		<quad4 id="8">36, 141, 146, 41</quad4>
		<quad4 id="9">41, 146, 151, 46</quad4>
		<quad4 id="10">46, 151, 156, 51</quad4>
		<quad4 id="11">51, 156, 161, 56</quad4>
		<quad4 id="12">56, 161, 166, 61</quad4>
		<quad4 id="13">61, 166, 171, 66</quad4>
		<quad4 id="14">66, 171, 176, 71</quad4>
		<quad4 id="15">71, 176, 181, 76</quad4>
		<quad4 id="16">76, 181, 186, 81</quad4>
		<quad4 id="17">81, 186, 191, 86</quad4>
		<quad4 id="18">86, 191, 196, 91</quad4>
		<quad4 id="19">91, 196, 201, 96</quad4>
		<quad4 id="20">96, 201, 106, 1</quad4>
	</Surface>
</Geometry>


	<Boundary>
        <bc name="FixedDisplacement1" type="fix" node_set="FixXs">
            <dofs>x</dofs>
        </bc>
        <bc name="FixedDisplacement2" type="fix" node_set="FixYs">
            <dofs>y</dofs>
        </bc>
        <bc name="FixedDisplacement3" type="fix" node_set="@surface:FixZs">
            <dofs>z</dofs>
        </bc>
	</Boundary>
	<MeshData>
	<ElementData var="mat_axis" elem_set="Part1">
		<elem lid="1">
			<a>0.9876883405951377, 0.15643446504023087, 0</a>
			<d>-0.15643446504023087, 0.9876883405951377, 0</d>
		</elem>
		<elem lid="2">
			<a>0.9876883405951377, 0.15643446504023087, 0</a>
			<d>-0.15643446504023087, 0.9876883405951377, 0</d>
		</elem>
		<elem lid="3">
			<a>0.9876883405951377, 0.15643446504023087, 0</a>
			<d>-0.15643446504023087, 0.9876883405951377, 0</d>
		</elem>
		<elem lid="4">
			<a>0.9876883405951377, 0.15643446504023087, 0</a>
			<d>-0.15643446504023087, 0.9876883405951377, 0</d>
		</elem>
		<elem lid="5">
			<a>0.8910065241883677, 0.45399049973954675, 0</a>
			<d>-0.45399049973954675, 0.8910065241883677, 0</d>
		</elem>
		<elem lid="6">
			<a>0.8910065241883677, 0.45399049973954675, 0</a>
			<d>-0.45399049973954675, 0.8910065241883677, 0</d>
		</elem>
		<elem lid="7">
			<a>0.8910065241883677, 0.45399049973954675, 0</a>
			<d>-0.45399049973954675, 0.8910065241883677, 0</d>
		</elem>
		<elem lid="8">
			<a>0.8910065241883677, 0.45399049973954675, 0</a>
			<d>-0.45399049973954675, 0.8910065241883677, 0</d>
		</elem>
		<elem lid="9">
			<a>0.7071067811865477, 0.7071067811865476, 0</a>
			<d>-0.7071067811865476, 0.7071067811865477, 0</d>
		</elem>
		<elem lid="10">
			<a>0.7071067811865477, 0.7071067811865476, 0</a>
			<d>-0.7071067811865476, 0.7071067811865477, 0</d>
		</elem>
		<elem lid="11">
			<a>0.7071067811865477, 0.7071067811865476, 0</a>
			<d>-0.7071067811865476, 0.7071067811865477, 0</d>
		</elem>
		<elem lid="12">
			<a>0.7071067811865477, 0.7071067811865476, 0</a>
			<d>-0.7071067811865476, 0.7071067811865477, 0</d>
		</elem>
		<elem lid="13">
			<a>0.4539904997395468, 0.8910065241883677, 0</a>
			<d>-0.8910065241883677, 0.4539904997395468, 0</d>
		</elem>
		<elem lid="14">
			<a>0.4539904997395468, 0.8910065241883677, 0</a>
			<d>-0.8910065241883677, 0.4539904997395468, 0</d>
		</elem>
		<elem lid="15">
			<a>0.4539904997395468, 0.8910065241883677, 0</a>
			<d>-0.8910065241883677, 0.4539904997395468, 0</d>
		</elem>
		<elem lid="16">
			<a>0.4539904997395468, 0.8910065241883677, 0</a>
			<d>-0.8910065241883677, 0.4539904997395468, 0</d>
		</elem>
		<elem lid="17">
			<a>0.15643446504023092, 0.9876883405951377, 0</a>
			<d>-0.9876883405951377, 0.15643446504023092, 0</d>
		</elem>
		<elem lid="18">
			<a>0.15643446504023092, 0.9876883405951377, 0</a>
			<d>-0.9876883405951377, 0.15643446504023092, 0</d>
		</elem>
		<elem lid="19">
			<a>0.15643446504023092, 0.9876883405951377, 0</a>
			<d>-0.9876883405951377, 0.15643446504023092, 0</d>
		</elem>
		<elem lid="20">
			<a>0.15643446504023092, 0.9876883405951377, 0</a>
			<d>-0.9876883405951377, 0.15643446504023092, 0</d>
		</elem>
		<elem lid="21">
			<a>-0.1564344650402306, 0.9876883405951378, 0</a>
			<d>-0.9876883405951378, -0.1564344650402306, 0</d>
		</elem>
		<elem lid="22">
			<a>-0.1564344650402306, 0.9876883405951378, 0</a>
			<d>-0.9876883405951378, -0.1564344650402306, 0</d>
		</elem>
		<elem lid="23">
			<a>-0.1564344650402306, 0.9876883405951378, 0</a>
			<d>-0.9876883405951378, -0.1564344650402306, 0</d>
		</elem>
		<elem lid="24">
			<a>-0.1564344650402306, 0.9876883405951378, 0</a>
			<d>-0.9876883405951378, -0.1564344650402306, 0</d>
		</elem>
		<elem lid="25">
			<a>-0.4539904997395467, 0.8910065241883678, 0</a>
			<d>-0.8910065241883678, -0.4539904997395467, 0</d>
		</elem>
		<elem lid="26">
			<a>-0.4539904997395467, 0.8910065241883678, 0</a>
			<d>-0.8910065241883678, -0.4539904997395467, 0</d>
		</elem>
		<elem lid="27">
			<a>-0.4539904997395467, 0.8910065241883678, 0</a>
			<d>-0.8910065241883678, -0.4539904997395467, 0</d>
		</elem>
		<elem lid="28">
			<a>-0.4539904997395467, 0.8910065241883678, 0</a>
			<d>-0.8910065241883678, -0.4539904997395467, 0</d>
		</elem>
		<elem lid="29">
			<a>-0.7071067811865475, 0.7071067811865477, 0</a>
			<d>-0.7071067811865477, -0.7071067811865475, 0</d>
		</elem>
		<elem lid="30">
			<a>-0.7071067811865475, 0.7071067811865477, 0</a>
			<d>-0.7071067811865477, -0.7071067811865475, 0</d>
		</elem>
		<elem lid="31">
			<a>-0.7071067811865475, 0.7071067811865477, 0</a>
			<d>-0.7071067811865477, -0.7071067811865475, 0</d>
		</elem>
		<elem lid="32">
			<a>-0.7071067811865475, 0.7071067811865477, 0</a>
			<d>-0.7071067811865477, -0.7071067811865475, 0</d>
		</elem>
		<elem lid="33">
			<a>-0.8910065241883677, 0.45399049973954686, 0</a>
			<d>-0.45399049973954686, -0.8910065241883677, 0</d>
		</elem>
		<elem lid="34">
			<a>-0.8910065241883677, 0.45399049973954686, 0</a>
			<d>-0.45399049973954686, -0.8910065241883677, 0</d>
		</elem>
		<elem lid="35">
			<a>-0.8910065241883677, 0.45399049973954686, 0</a>
			<d>-0.45399049973954686, -0.8910065241883677, 0</d>
		</elem>
		<elem lid="36">
			<a>-0.8910065241883677, 0.45399049973954686, 0</a>
			<d>-0.45399049973954686, -0.8910065241883677, 0</d>
		</elem>
		<elem lid="37">
			<a>-0.9876883405951377, 0.15643446504023098, 0</a>
			<d>-0.15643446504023098, -0.9876883405951377, 0</d>
		</elem>
		<elem lid="38">
			<a>-0.9876883405951377, 0.15643446504023098, 0</a>
			<d>-0.15643446504023098, -0.9876883405951377, 0</d>
		</elem>
		<elem lid="39">
			<a>-0.9876883405951377, 0.15643446504023098, 0</a>
			<d>-0.15643446504023098, -0.9876883405951377, 0</d>
		</elem>
		<elem lid="40">
			<a>-0.9876883405951377, 0.15643446504023098, 0</a>
			<d>-0.15643446504023098, -0.9876883405951377, 0</d>
		</elem>
		<elem lid="41">
			<a>-0.9876883405951377, -0.15643446504023076, 0</a>
			<d>0.15643446504023076, -0.9876883405951377, 0</d>
		</elem>
		<elem lid="42">
			<a>-0.9876883405951377, -0.15643446504023076, 0</a>
			<d>0.15643446504023076, -0.9876883405951377, 0</d>
		</elem>
		<elem lid="43">
			<a>-0.9876883405951377, -0.15643446504023076, 0</a>
			<d>0.15643446504023076, -0.9876883405951377, 0</d>
		</elem>
		<elem lid="44">
			<a>-0.9876883405951377, -0.15643446504023076, 0</a>
			<d>0.15643446504023076, -0.9876883405951377, 0</d>
		</elem>
		<elem lid="45">
			<a>-0.8910065241883678, -0.45399049973954664, 0</a>
			<d>0.45399049973954664, -0.8910065241883678, 0</d>
		</elem>
		<elem lid="46">
			<a>-0.8910065241883678, -0.45399049973954664, 0</a>
			<d>0.45399049973954664, -0.8910065241883678, 0</d>
		</elem>
		<elem lid="47">
			<a>-0.8910065241883678, -0.45399049973954664, 0</a>
			<d>0.45399049973954664, -0.8910065241883678, 0</d>
		</elem>
		<elem lid="48">
			<a>-0.8910065241883678, -0.45399049973954664, 0</a>
			<d>0.45399049973954664, -0.8910065241883678, 0</d>
		</elem>
		<elem lid="49">
			<a>-0.7071067811865477, -0.7071067811865475, 0</a>
			<d>0.7071067811865475, -0.7071067811865477, 0</d>
		</elem>
		<elem lid="50">
			<a>-0.7071067811865477, -0.7071067811865475, 0</a>
			<d>0.7071067811865475, -0.7071067811865477, 0</d>
		</elem>
		<elem lid="51">
			<a>-0.7071067811865477, -0.7071067811865475, 0</a>
			<d>0.7071067811865475, -0.7071067811865477, 0</d>
		</elem>
		<elem lid="52">
			<a>-0.7071067811865477, -0.7071067811865475, 0</a>
			<d>0.7071067811865475, -0.7071067811865477, 0</d>
		</elem>
		<elem lid="53">
			<a>-0.4539904997395469, -0.8910065241883676, 0</a>
			<d>0.8910065241883676, -0.4539904997395469, 0</d>
		</elem>
		<elem lid="54">
			<a>-0.4539904997395469, -0.8910065241883676, 0</a>
			<d>0.8910065241883676, -0.4539904997395469, 0</d>
		</elem>
		<elem lid="55">
			<a>-0.4539904997395469, -0.8910065241883676, 0</a>
			<d>0.8910065241883676, -0.4539904997395469, 0</d>
		</elem>
		<elem lid="56">
			<a>-0.4539904997395469, -0.8910065241883676, 0</a>
			<d>0.8910065241883676, -0.4539904997395469, 0</d>
		</elem>
		<elem lid="57">
			<a>-0.15643446504023106, -0.9876883405951375, 0</a>
			<d>0.9876883405951375, -0.15643446504023106, 0</d>
		</elem>
		<elem lid="58">
			<a>-0.15643446504023106, -0.9876883405951375, 0</a>
			<d>0.9876883405951375, -0.15643446504023106, 0</d>
		</elem>
		<elem lid="59">
			<a>-0.15643446504023106, -0.9876883405951375, 0</a>
			<d>0.9876883405951375, -0.15643446504023106, 0</d>
		</elem>
		<elem lid="60">
			<a>-0.15643446504023106, -0.9876883405951375, 0</a>
			<d>0.9876883405951375, -0.15643446504023106, 0</d>
		</elem>
		<elem lid="61">
			<a>0.15643446504023067, -0.9876883405951377, 0</a>
			<d>0.9876883405951377, 0.15643446504023067, 0</d>
		</elem>
		<elem lid="62">
			<a>0.15643446504023067, -0.9876883405951377, 0</a>
			<d>0.9876883405951377, 0.15643446504023067, 0</d>
		</elem>
		<elem lid="63">
			<a>0.15643446504023067, -0.9876883405951377, 0</a>
			<d>0.9876883405951377, 0.15643446504023067, 0</d>
		</elem>
		<elem lid="64">
			<a>0.15643446504023067, -0.9876883405951377, 0</a>
			<d>0.9876883405951377, 0.15643446504023067, 0</d>
		</elem>
		<elem lid="65">
			<a>0.4539904997395466, -0.8910065241883678, 0</a>
			<d>0.8910065241883678, 0.4539904997395466, 0</d>
		</elem>
		<elem lid="66">
			<a>0.4539904997395466, -0.8910065241883678, 0</a>
			<d>0.8910065241883678, 0.4539904997395466, 0</d>
		</elem>
		<elem lid="67">
			<a>0.4539904997395466, -0.8910065241883678, 0</a>
			<d>0.8910065241883678, 0.4539904997395466, 0</d>
		</elem>
		<elem lid="68">
			<a>0.4539904997395466, -0.8910065241883678, 0</a>
			<d>0.8910065241883678, 0.4539904997395466, 0</d>
		</elem>
		<elem lid="69">
			<a>0.7071067811865474, -0.7071067811865477, 0</a>
			<d>0.7071067811865477, 0.7071067811865474, 0</d>
		</elem>
		<elem lid="70">
			<a>0.7071067811865474, -0.7071067811865477, 0</a>
			<d>0.7071067811865477, 0.7071067811865474, 0</d>
		</elem>
		<elem lid="71">
			<a>0.7071067811865474, -0.7071067811865477, 0</a>
			<d>0.7071067811865477, 0.7071067811865474, 0</d>
		</elem>
		<elem lid="72">
			<a>0.7071067811865474, -0.7071067811865477, 0</a>
			<d>0.7071067811865477, 0.7071067811865474, 0</d>
		</elem>
		<elem lid="73">
			<a>0.8910065241883676, -0.45399049973954697, 0</a>
			<d>0.45399049973954697, 0.8910065241883676, 0</d>
		</elem>
		<elem lid="74">
			<a>0.8910065241883676, -0.45399049973954697, 0</a>
			<d>0.45399049973954697, 0.8910065241883676, 0</d>
		</elem>
		<elem lid="75">
			<a>0.8910065241883676, -0.45399049973954697, 0</a>
			<d>0.45399049973954697, 0.8910065241883676, 0</d>
		</elem>
		<elem lid="76">
			<a>0.8910065241883676, -0.45399049973954697, 0</a>
			<d>0.45399049973954697, 0.8910065241883676, 0</d>
		</elem>
		<elem lid="77">
			<a>0.9876883405951375, -0.15643446504023112, 0</a>
			<d>0.15643446504023112, 0.9876883405951375, 0</d>
		</elem>
		<elem lid="78">
			<a>0.9876883405951375, -0.15643446504023112, 0</a>
			<d>0.15643446504023112, 0.9876883405951375, 0</d>
		</elem>
		<elem lid="79">
			<a>0.9876883405951375, -0.15643446504023112, 0</a>
			<d>0.15643446504023112, 0.9876883405951375, 0</d>
		</elem>
		<elem lid="80">
			<a>0.9876883405951375, -0.15643446504023112, 0</a>
			<d>0.15643446504023112, 0.9876883405951375, 0</d>
		</elem>
	</ElementData>

	</MeshData>
    <Loads>
        <surface_load type="pressure" surface="PressureLoad1">
            <pressure lc="1">13.9868</pressure>
            <linear>0</linear>
            <symmetric_stiffness>0</symmetric_stiffness>
        </surface_load>
    </Loads>
	<LoadData>
		<load_controller id="1" type="loadcurve">
			<interpolate>LINEAR</interpolate>
			<points>
				<point>0,1.4</point>
				<point>10,1.4</point>
			</points>
		</load_controller>
	</LoadData>
    <Output>
        <plotfile type="vtk">
            <var type="displacement"/>
            <var type="relative volume"/>
            <var type="stress"/>
			<var type="SPR stress"/>
			<var type="Lagrange strain"/>
			<var type="SPR principal stress"/>
            <var type="strain energy density"/>
            <var type="acceleration"/>
			<var type="velocity"/>
        </plotfile>
    </Output>
</febio_spec>
