<?xml version="1.0" encoding="ISO-8859-1"?>
<febio_spec version="3.0">
    <Module type="solid"/>
	<Control>
		<analysis>STATIC</analysis>
		<time_steps>720</time_steps>
		<step_size>1</step_size>
		<solver>
			<diverge_reform>1</diverge_reform>
			<reform_each_time_step>1</reform_each_time_step>
	        <dtol>0</dtol>
	        <etol>1e-16</etol>
	        <rtol>1e-16</rtol>
			<lstol>0.0</lstol>
			<min_residual>1e-20</min_residual>
            <qn_method type="Broyden"/>
                <max_refs>1000</max_refs>
                <max_ups>0</max_ups>
            <symmetric_stiffness>0</symmetric_stiffness>
		</solver>
	</Control>
    <Globals>
        <Constants>
            <T>0</T>
            <R>0</R>
            <Fc>0</Fc>
        </Constants>
    </Globals>
    <Material>
        <material id="1" name="Material1" type="FSG">
            <density>1</density>
		 	<k>100000.0</k>
		 	<dt>1.0</dt>
        </material>
    </Material>

    <Geometry>
	<Nodes name="Object01">
		<node id="1">0.6468, 0.0, -0.0201</node>
		<node id="2">0.6669, 0.0, -0.0201</node>
		<node id="3">0.687, 0.0, -0.0201</node>
		<node id="4">0.6440332681682903, 0.04221217056396468, -0.0201</node>
		<node id="5">0.664047289025097, 0.0435239587957762, -0.0201</node>
		<node id="6">0.6840613098819038, 0.04483574702758772, -0.0201</node>
		<node id="7">0.6412665363365805, 0.08442434112792936, -0.0201</node>
		<node id="8">0.661194578050194, 0.0870479175915524, -0.0201</node>
		<node id="9">0.6811226197638076, 0.08967149405517544, -0.0201</node>
		<node id="10">0.6330136803901749, 0.12591424975011992, -0.0201</node>
		<node id="11">0.6526852558011869, 0.12982716938521177, -0.0201</node>
		<node id="12">0.6723568312121988, 0.1337400890203036, -0.0201</node>
		<node id="13">0.6247608244437695, 0.16740415837231046, -0.0201</node>
		<node id="14">0.6441759335521797, 0.17260642117887112, -0.0201</node>
		<node id="15">0.6635910426605901, 0.1778086839854318, -0.0201</node>
		<node id="16">0.6111630530360348, 0.20746190121302527, -0.0201</node>
		<node id="17">0.6301555968919784, 0.21390900111157474, -0.0201</node>
		<node id="18">0.649148140747922, 0.22035610101012426, -0.0201</node>
		<node id="19">0.5975652816283002, 0.24751964405374008, -0.0201</node>
		<node id="20">0.6161352602317771, 0.2552115810442784, -0.0201</node>
<!-- ... 853 like lines cut -->
	</Nodes>
	<Elements type="hex20" mat="1" name="Part1">
		<elem id="1">1, 7, 589, 583, 3, 9, 591, 585, 4, 298, 586, 292, 6, 300, 588, 294, 2, 8, 590, 584</elem>
		<elem id="2">7, 13, 595, 589, 9, 15, 597, 591, 10, 304, 592, 298, 12, 306, 594, 300, 8, 14, 596, 590</elem>
		<elem id="3">13, 19, 601, 595, 15, 21, 603, 597, 16, 310, 598, 304, 18, 312, 600, 306, 14, 20, 602, 596</elem>
		<elem id="4">19, 25, 607, 601, 21, 27, 609, 603, 22, 316, 604, 310, 24, 318, 606, 312, 20, 26, 608, 602</elem>
		<elem id="5">25, 31, 613, 607, 27, 33, 615, 609, 28, 322, 610, 316, 30, 324, 612, 318, 26, 32, 614, 608</elem>
		<elem id="6">31, 37, 619, 613, 33, 39, 621, 615, 34, 328, 616, 322, 36, 330, 618, 324, 32, 38, 620, 614</elem>
		<elem id="7">37, 43, 625, 619, 39, 45, 627, 621, 40, 334, 622, 328, 42, 336, 624, 330, 38, 44, 626, 620</elem>
		<elem id="8">43, 49, 631, 625, 45, 51, 633, 627, 46, 340, 628, 334, 48, 342, 630, 336, 44, 50, 632, 626</elem>
		<elem id="9">49, 55, 637, 631, 51, 57, 639, 633, 52, 346, 634, 340, 54, 348, 636, 342, 50, 56, 638, 632</elem>
		<elem id="10">55, 61, 643, 637, 57, 63, 645, 639, 58, 352, 640, 346, 60, 354, 642, 348, 56, 62, 644, 638</elem>
		<elem id="11">61, 67, 649, 643, 63, 69, 651, 645, 64, 358, 646, 352, 66, 360, 648, 354, 62, 68, 650, 644</elem>
		<elem id="12">67, 73, 655, 649, 69, 75, 657, 651, 70, 364, 652, 358, 72, 366, 654, 360, 68, 74, 656, 650</elem>
		<elem id="13">73, 79, 661, 655, 75, 81, 663, 657, 76, 370, 658, 364, 78, 372, 660, 366, 74, 80, 662, 656</elem>
		<elem id="14">79, 85, 667, 661, 81, 87, 669, 663, 82, 376, 664, 370, 84, 378, 666, 372, 80, 86, 668, 662</elem>
		<elem id="15">85, 91, 673, 667, 87, 93, 675, 669, 88, 382, 670, 376, 90, 384, 672, 378, 86, 92, 674, 668</elem>
		<elem id="16">91, 97, 679, 673, 93, 99, 681, 675, 94, 388, 676, 382, 96, 390, 678, 384, 92, 98, 680, 674</elem>
		<elem id="17">97, 103, 685, 679, 99, 105, 687, 681, 100, 394, 682, 388, 102, 396, 684, 390, 98, 104, 686, 680</elem>
		<elem id="18">103, 109, 691, 685, 105, 111, 693, 687, 106, 400, 688, 394, 108, 402, 690, 396, 104, 110, 692, 686</elem>
		<elem id="19">109, 115, 697, 691, 111, 117, 699, 693, 112, 406, 694, 400, 114, 408, 696, 402, 110, 116, 698, 692</elem>
		<elem id="20">115, 121, 703, 697, 117, 123, 705, 699, 118, 412, 700, 406, 120, 414, 702, 408, 116, 122, 704, 698</elem>
<!-- ... 28 like lines cut -->
	</Elements>
	<Surface name="FixXs">
		<quad8 id="1">73, 75, 657, 655, 74, 366, 656, 364</quad8>
		<quad8 id="2">217, 219, 801, 799, 218, 510, 800, 508</quad8>
	</Surface>
	<Surface name="FixYs">
		<quad8 id="1">1, 3, 585, 583, 2, 294, 584, 292</quad8>
		<quad8 id="2">145, 147, 729, 727, 146, 438, 728, 436</quad8>
	</Surface>
	<Surface name="FixZs">
		<quad8 id="1">1, 3, 9, 7, 2, 6, 8, 4</quad8>
		<quad8 id="2">583, 585, 591, 589, 584, 588, 590, 586</quad8>
		<quad8 id="3">7, 9, 15, 13, 8, 12, 14, 10</quad8>
		<quad8 id="4">589, 591, 597, 595, 590, 594, 596, 592</quad8>
		<quad8 id="5">13, 15, 21, 19, 14, 18, 20, 16</quad8>
		<quad8 id="6">595, 597, 603, 601, 596, 600, 602, 598</quad8>
		<quad8 id="7">19, 21, 27, 25, 20, 24, 26, 22</quad8>
		<quad8 id="8">601, 603, 609, 607, 602, 606, 608, 604</quad8>
		<quad8 id="9">25, 27, 33, 31, 26, 30, 32, 28</quad8>
		<quad8 id="10">607, 609, 615, 613, 608, 612, 614, 610</quad8>
		<quad8 id="11">31, 33, 39, 37, 32, 36, 38, 34</quad8>
		<quad8 id="12">613, 615, 621, 619, 614, 618, 620, 616</quad8>
		<quad8 id="13">37, 39, 45, 43, 38, 42, 44, 40</quad8>
		<quad8 id="14">619, 621, 627, 625, 620, 624, 626, 622</quad8>
		<quad8 id="15">43, 45, 51, 49, 44, 48, 50, 46</quad8>
		<quad8 id="16">625, 627, 633, 631, 626, 630, 632, 628</quad8>
		<quad8 id="17">49, 51, 57, 55, 50, 54, 56, 52</quad8>
		<quad8 id="18">631, 633, 639, 637, 632, 636, 638, 634</quad8>
		<quad8 id="19">55, 57, 63, 61, 56, 60, 62, 58</quad8>
		<quad8 id="20">637, 639, 645, 643, 638, 642, 644, 640</quad8>
<!-- ... 76 like lines cut -->
	</Surface>
	<Surface name="PressureLoad1">
		<quad8 id="1">1, 583, 589, 7, 292, 586, 298, 4</quad8>
		<quad8 id="2">7, 589, 595, 13, 298, 592, 304, 10</quad8>
		<quad8 id="3">13, 595, 601, 19, 304, 598, 310, 16</quad8>
		<quad8 id="4">19, 601, 607, 25, 310, 604, 316, 22</quad8>
		<quad8 id="5">25, 607, 613, 31, 316, 610, 322, 28</quad8>
		<quad8 id="6">31, 613, 619, 37, 322, 616, 328, 34</quad8>
		<quad8 id="7">37, 619, 625, 43, 328, 622, 334, 40</quad8>
		<quad8 id="8">43, 625, 631, 49, 334, 628, 340, 46</quad8>
		<quad8 id="9">49, 631, 637, 55, 340, 634, 346, 52</quad8>
		<quad8 id="10">55, 637, 643, 61, 346, 640, 352, 58</quad8>
		<quad8 id="11">61, 643, 649, 67, 352, 646, 358, 64</quad8>
		<quad8 id="12">67, 649, 655, 73, 358, 652, 364, 70</quad8>
		<quad8 id="13">73, 655, 661, 79, 364, 658, 370, 76</quad8>
		<quad8 id="14">79, 661, 667, 85, 370, 664, 376, 82</quad8>
		<quad8 id="15">85, 667, 673, 91, 376, 670, 382, 88</quad8>
		<quad8 id="16">91, 673, 679, 97, 382, 676, 388, 94</quad8>
		<quad8 id="17">97, 679, 685, 103, 388, 682, 394, 100</quad8>
		<quad8 id="18">103, 685, 691, 109, 394, 688, 400, 106</quad8>
		<quad8 id="19">109, 691, 697, 115, 400, 694, 406, 112</quad8>
		<quad8 id="20">115, 697, 703, 121, 406, 700, 412, 118</quad8>
<!-- ... 28 like lines cut -->
	</Surface>
</Geometry>

	<Boundary>
		<bc name="FixYs" type="fix" node_set="@surface:FixYs">
			<dofs>y</dofs>
		</bc>
		<bc name="FixZs" type="fix" node_set="@surface:FixZs">
			<dofs>z</dofs>
		</bc>
		<bc name="FixXs" type="fix" node_set="@surface:FixXs">
			<dofs>x</dofs>
		</bc>
	</Boundary>
	<MeshData>

	<ElementData var="mat_axis" elem_set="Part1">
		<elem lid="1">
			<a>0.9978589232386035, 0.06540312923014306, 0</a>
			<d>-0.06540312923014306, 0.9978589232386035, 0</d>
		</elem>
		<elem lid="2">
			<a>0.9807852804032304, 0.19509032201612828, 0</a>
			<d>-0.19509032201612828, 0.9807852804032304, 0</d>
		</elem>
		<elem lid="3">
			<a>0.9469301294951057, 0.32143946530316164, 0</a>
			<d>-0.32143946530316164, 0.9469301294951057, 0</d>
		</elem>
		<elem lid="4">
			<a>0.8968727415326881, 0.44228869021900125, 0</a>
			<d>-0.44228869021900125, 0.8968727415326881, 0</d>
		</elem>
		<elem lid="5">
			<a>0.8314696123025453, 0.5555702330196022, 0</a>
			<d>-0.5555702330196022, 0.8314696123025453, 0</d>
		</elem>
		<elem lid="6">
			<a>0.7518398074789776, 0.6593458151000688, 0</a>
			<d>-0.6593458151000688, 0.7518398074789776, 0</d>
		</elem>
		<elem lid="7">
			<a>0.6593458151000688, 0.7518398074789775, 0</a>
			<d>-0.7518398074789775, 0.6593458151000688, 0</d>
		</elem>
		<elem lid="8">
			<a>0.5555702330196023, 0.8314696123025451, 0</a>
			<d>-0.8314696123025451, 0.5555702330196023, 0</d>
		</elem>
		<elem lid="9">
			<a>0.44228869021900125, 0.8968727415326881, 0</a>
			<d>-0.8968727415326881, 0.44228869021900125, 0</d>
		</elem>
		<elem lid="10">
			<a>0.32143946530316175, 0.9469301294951058, 0</a>
			<d>-0.9469301294951058, 0.32143946530316175, 0</d>
		</elem>
		<elem lid="11">
			<a>0.19509032201612833, 0.9807852804032305, 0</a>
			<d>-0.9807852804032305, 0.19509032201612833, 0</d>
		</elem>
		<elem lid="12">
			<a>0.06540312923014327, 0.9978589232386035, 0</a>
			<d>-0.9978589232386035, 0.06540312923014327, 0</d>
		</elem>
		<elem lid="13">
			<a>-0.06540312923014316, 0.9978589232386036, 0</a>
			<d>-0.9978589232386036, -0.06540312923014316, 0</d>
		</elem>
		<elem lid="14">
			<a>-0.19509032201612822, 0.9807852804032305, 0</a>
			<d>-0.9807852804032305, -0.19509032201612822, 0</d>
		</elem>
		<elem lid="15">
			<a>-0.32143946530316164, 0.9469301294951058, 0</a>
			<d>-0.9469301294951058, -0.32143946530316164, 0</d>
		</elem>
		<elem lid="16">
			<a>-0.44228869021900113, 0.8968727415326883, 0</a>
			<d>-0.8968727415326883, -0.44228869021900113, 0</d>
		</elem>
		<elem lid="17">
			<a>-0.5555702330196022, 0.8314696123025451, 0</a>
			<d>-0.8314696123025451, -0.5555702330196022, 0</d>
		</elem>
		<elem lid="18">
			<a>-0.6593458151000688, 0.7518398074789775, 0</a>
			<d>-0.7518398074789775, -0.6593458151000688, 0</d>
		</elem>
		<elem lid="19">
			<a>-0.7518398074789774, 0.659345815100069, 0</a>
			<d>-0.659345815100069, -0.7518398074789774, 0</d>
		</elem>
		<elem lid="20">
			<a>-0.831469612302545, 0.5555702330196024, 0</a>
			<d>-0.5555702330196024, -0.831469612302545, 0</d>
		</elem>
		<elem lid="21">
			<a>-0.896872741532688, 0.4422886902190017, 0</a>
			<d>-0.4422886902190017, -0.896872741532688, 0</d>
		</elem>
		<elem lid="22">
			<a>-0.9469301294951057, 0.3214394653031618, 0</a>
			<d>-0.3214394653031618, -0.9469301294951057, 0</d>
		</elem>
		<elem lid="23">
			<a>-0.9807852804032305, 0.19509032201612816, 0</a>
			<d>-0.19509032201612816, -0.9807852804032305, 0</d>
		</elem>
		<elem lid="24">
			<a>-0.9978589232386035, 0.06540312923014312, 0</a>
			<d>-0.06540312923014312, -0.9978589232386035, 0</d>
		</elem>
		<elem lid="25">
			<a>-0.9978589232386034, -0.06540312923014287, 0</a>
			<d>0.06540312923014287, -0.9978589232386034, 0</d>
		</elem>
		<elem lid="26">
			<a>-0.9807852804032307, -0.19509032201612797, 0</a>
			<d>0.19509032201612797, -0.9807852804032307, 0</d>
		</elem>
		<elem lid="27">
			<a>-0.9469301294951057, -0.3214394653031616, 0</a>
			<d>0.3214394653031616, -0.9469301294951057, 0</d>
		</elem>
		<elem lid="28">
			<a>-0.8968727415326881, -0.44228869021900147, 0</a>
			<d>0.44228869021900147, -0.8968727415326881, 0</d>
		</elem>
		<elem lid="29">
			<a>-0.8314696123025455, -0.5555702330196018, 0</a>
			<d>0.5555702330196018, -0.8314696123025455, 0</d>
		</elem>
		<elem lid="30">
			<a>-0.7518398074789776, -0.6593458151000688, 0</a>
			<d>0.6593458151000688, -0.7518398074789776, 0</d>
		</elem>
		<elem lid="31">
			<a>-0.6593458151000691, -0.7518398074789774, 0</a>
			<d>0.7518398074789774, -0.6593458151000691, 0</d>
		</elem>
		<elem lid="32">
			<a>-0.5555702330196021, -0.8314696123025453, 0</a>
			<d>0.8314696123025453, -0.5555702330196021, 0</d>
		</elem>
		<elem lid="33">
			<a>-0.44228869021900136, -0.8968727415326881, 0</a>
			<d>0.8968727415326881, -0.44228869021900136, 0</d>
		</elem>
		<elem lid="34">
			<a>-0.32143946530316186, -0.9469301294951056, 0</a>
			<d>0.9469301294951056, -0.32143946530316186, 0</d>
		</elem>
		<elem lid="35">
			<a>-0.1950903220161287, -0.9807852804032304, 0</a>
			<d>0.9807852804032304, -0.1950903220161287, 0</d>
		</elem>
		<elem lid="36">
			<a>-0.06540312923014273, -0.9978589232386035, 0</a>
			<d>0.9978589232386035, -0.06540312923014273, 0</d>
		</elem>
		<elem lid="37">
			<a>0.06540312923014237, -0.9978589232386036, 0</a>
			<d>0.9978589232386036, 0.06540312923014237, 0</d>
		</elem>
		<elem lid="38">
			<a>0.1950903220161283, -0.9807852804032305, 0</a>
			<d>0.9807852804032305, 0.1950903220161283, 0</d>
		</elem>
		<elem lid="39">
			<a>0.32143946530316153, -0.9469301294951058, 0</a>
			<d>0.9469301294951058, 0.32143946530316153, 0</d>
		</elem>
		<elem lid="40">
			<a>0.442288690219001, -0.8968727415326883, 0</a>
			<d>0.8968727415326883, 0.442288690219001, 0</d>
		</elem>
		<elem lid="41">
			<a>0.5555702330196017, -0.8314696123025455, 0</a>
			<d>0.8314696123025455, 0.5555702330196017, 0</d>
		</elem>
		<elem lid="42">
			<a>0.6593458151000691, -0.7518398074789773, 0</a>
			<d>0.7518398074789773, 0.6593458151000691, 0</d>
		</elem>
		<elem lid="43">
			<a>0.7518398074789776, -0.6593458151000687, 0</a>
			<d>0.6593458151000687, 0.7518398074789776, 0</d>
		</elem>
		<elem lid="44">
			<a>0.8314696123025448, -0.5555702330196028, 0</a>
			<d>0.5555702330196028, 0.8314696123025448, 0</d>
		</elem>
		<elem lid="45">
			<a>0.8968727415326881, -0.4422886902190014, 0</a>
			<d>0.4422886902190014, 0.8968727415326881, 0</d>
		</elem>
		<elem lid="46">
			<a>0.9469301294951056, -0.3214394653031619, 0</a>
			<d>0.3214394653031619, 0.9469301294951056, 0</d>
		</elem>
		<elem lid="47">
			<a>0.9807852804032304, -0.19509032201612875, 0</a>
			<d>0.19509032201612875, 0.9807852804032304, 0</d>
		</elem>
		<elem lid="48">
			<a>0.9978589232386034, -0.0654031292301428, 0</a>
			<d>0.0654031292301428, 0.9978589232386034, 0</d>
		</elem>
	</ElementData>

	</MeshData>
    <Loads>
        <surface_load type="pressure" surface="PressureLoad1">
            <pressure lc="1">19.58152</pressure>
            <linear>0</linear>
            <symmetric_stiffness>0</symmetric_stiffness>
        </surface_load>
    </Loads>
	<LoadData>
		<load_controller id="1" type="loadcurve">
			<interpolate>LINEAR</interpolate>
			<points>
				<point>0,1</point>
				<point>10,1</point>
			</points>
		</load_controller>
	</LoadData>
    <Output>
        <plotfile type="vtk">
            <var type="displacement"/>
            <var type="relative volume"/>
            <var type="stress"/>
			<var type="SPR stress"/>
			<var type="Lagrange strain"/>
			<var type="SPR principal stress"/>
            <var type="strain energy density"/>
            <var type="acceleration"/>
			<var type="velocity"/>
        </plotfile>
    </Output>
</febio_spec>