<?xml version='1.0' encoding='utf-8'?>
<febio_spec version="4.0">
  <Module type="solid" />
  <Control>
    <analysis>STATIC</analysis>
    <time_steps>2881</time_steps>
    <step_size>1</step_size>
    <solver>
      <diverge_reform>1</diverge_reform>
      <reform_each_time_step>1</reform_each_time_step>
      <dtol>0</dtol>
      <etol>1e-8</etol>
      <rtol>1e-8</rtol>
      <lstol>0.0</lstol>
      <min_residual>1e-8</min_residual>
      <rhoi>0</rhoi>
      <linear_solver type="mkl_dss" />
      <max_refs>1000</max_refs>
      <qn_method type="Broyden">
        <max_ups>0</max_ups>
      </qn_method>
      <symmetric_stiffness>0</symmetric_stiffness>
    </solver>
  </Control>
  <Globals>
    <Constants>
      <T>0</T>
      <R>0</R>
      <Fc>0</Fc>
    </Constants>
  </Globals>
  <Material>
    <material id="1" name="Material1" type="FSG">
      <density>1</density>
      <k>1000.0</k>
      <elastin_injury_val lc="2" type="math"> 0.7 * exp(-abs((Z - 0.0) / 3.0) ^ 5.0)</elastin_injury_val>
      <e_r type="math"> X/sqrt(X^2 + Y^2), Y/sqrt(X^2 + Y^2), 0 </e_r>
      <e_t type="math"> -Y/sqrt(X^2 + Y^2), X/sqrt(X^2 + Y^2), 0 </e_t>
      <e_z type="math"> 0, 0, 1 </e_z>
    </material>
  </Material>
  <Mesh>
    <Nodes name="Object01">
      <node id="1">0.6468, 0.0, -7.5</node>
      <node id="2">0.6669, 0.0, -7.5</node>
      <node id="3">0.687, 0.0, -7.5</node>
      <node id="4">0.6412665363365806, 0.08442434112792936, -7.5</node>
      <node id="5">0.6611945780501942, 0.0870479175915524, -7.5</node>
      <node id="6">0.6811226197638078, 0.08967149405517544, -7.5</node>
      <node id="7">0.6247608244437695, 0.16740415837231043, -7.5</node>
      <node id="8">0.6441759335521797, 0.1726064211788711, -7.5</node>
      <node id="9">0.66359104266059, 0.17780868398543176, -7.5</node>
      <node id="10">0.5975652816283002, 0.24751964405374008, -7.5</node>
      <node id="11">0.6161352602317771, 0.2552115810442784, -7.5</node>
      <node id="12">0.6347052388352541, 0.2629035180348167, -7.5</node>
      <node id="13">0.560145231167775, 0.32339999999999997, -7.5</node>
      <node id="14">0.5775523417838422, 0.33344999999999997, -7.5</node>
      <node id="15">0.5949594523999094, 0.34349999999999997, -7.5</node>
      <node id="16">0.513140940500371, 0.39374689228284054, -7.5</node>
      <node id="17">0.5290873426402247, 0.40598299700591584, -7.5</node>
      <node id="18">0.5450337447800786, 0.4182191017289911, -7.5</node>
      <node id="19">0.457356666071459, 0.4573566660714589, -7.5</node>
      <node id="20">0.47156951237330863, 0.4715695123733085, -7.5</node>
<!-- ... 3763 like lines cut -->
    </Nodes>
    <Elements type="hex27" mat="1" name="Part1">
      <elem id="1">1, 7, 85, 79, 3, 9, 87, 81, 4, 46, 82, 40, 6, 48, 84, 42, 2, 8, 86, 80, 5, 47, 83, 41, 43, 45, 44</elem>
      <elem id="2">7, 13, 91, 85, 9, 15, 93, 87, 10, 52, 88, 46, 12, 54, 90, 48, 8, 14, 92, 86, 11, 53, 89, 47, 49, 51, 50</elem>
      <elem id="3">13, 19, 97, 91, 15, 21, 99, 93, 16, 58, 94, 52, 18, 60, 96, 54, 14, 20, 98, 92, 17, 59, 95, 53, 55, 57, 56</elem>
      <elem id="4">19, 25, 103, 97, 21, 27, 105, 99, 22, 64, 100, 58, 24, 66, 102, 60, 20, 26, 104, 98, 23, 65, 101, 59, 61, 63, 62</elem>
      <elem id="5">25, 31, 109, 103, 27, 33, 111, 105, 28, 70, 106, 64, 30, 72, 108, 66, 26, 32, 110, 104, 29, 71, 107, 65, 67, 69, 68</elem>
      <elem id="6">31, 37, 115, 109, 33, 39, 117, 111, 34, 76, 112, 70, 36, 78, 114, 72, 32, 38, 116, 110, 35, 77, 113, 71, 73, 75, 74</elem>
      <elem id="7">79, 85, 163, 157, 81, 87, 165, 159, 82, 124, 160, 118, 84, 126, 162, 120, 80, 86, 164, 158, 83, 125, 161, 119, 121, 123, 122</elem>
      <elem id="8">85, 91, 169, 163, 87, 93, 171, 165, 88, 130, 166, 124, 90, 132, 168, 126, 86, 92, 170, 164, 89, 131, 167, 125, 127, 129, 128</elem>
      <elem id="9">91, 97, 175, 169, 93, 99, 177, 171, 94, 136, 172, 130, 96, 138, 174, 132, 92, 98, 176, 170, 95, 137, 173, 131, 133, 135, 134</elem>
      <elem id="10">97, 103, 181, 175, 99, 105, 183, 177, 100, 142, 178, 136, 102, 144, 180, 138, 98, 104, 182, 176, 101, 143, 179, 137, 139, 141, 140</elem>
      <elem id="11">103, 109, 187, 181, 105, 111, 189, 183, 106, 148, 184, 142, 108, 150, 186, 144, 104, 110, 188, 182, 107, 149, 185, 143, 145, 147, 146</elem>
      <elem id="12">109, 115, 193, 187, 111, 117, 195, 189, 112, 154, 190, 148, 114, 156, 192, 150, 110, 116, 194, 188, 113, 155, 191, 149, 151, 153, 152</elem>
      <elem id="13">157, 163, 241, 235, 159, 165, 243, 237, 160, 202, 238, 196, 162, 204, 240, 198, 158, 164, 242, 236, 161, 203, 239, 197, 199, 201, 200</elem>
      <elem id="14">163, 169, 247, 241, 165, 171, 249, 243, 166, 208, 244, 202, 168, 210, 246, 204, 164, 170, 248, 242, 167, 209, 245, 203, 205, 207, 206</elem>
      <elem id="15">169, 175, 253, 247, 171, 177, 255, 249, 172, 214, 250, 208, 174, 216, 252, 210, 170, 176, 254, 248, 173, 215, 251, 209, 211, 213, 212</elem>
      <elem id="16">175, 181, 259, 253, 177, 183, 261, 255, 178, 220, 256, 214, 180, 222, 258, 216, 176, 182, 260, 254, 179, 221, 257, 215, 217, 219, 218</elem>
      <elem id="17">181, 187, 265, 259, 183, 189, 267, 261, 184, 226, 262, 220, 186, 228, 264, 222, 182, 188, 266, 260, 185, 227, 263, 221, 223, 225, 224</elem>
      <elem id="18">187, 193, 271, 265, 189, 195, 273, 267, 190, 232, 268, 226, 192, 234, 270, 228, 188, 194, 272, 266, 191, 233, 269, 227, 229, 231, 230</elem>
      <elem id="19">235, 241, 319, 313, 237, 243, 321, 315, 238, 280, 316, 274, 240, 282, 318, 276, 236, 242, 320, 314, 239, 281, 317, 275, 277, 279, 278</elem>
      <elem id="20">241, 247, 325, 319, 243, 249, 327, 321, 244, 286, 322, 280, 246, 288, 324, 282, 242, 248, 326, 320, 245, 287, 323, 281, 283, 285, 284</elem>
<!-- ... 268 like lines cut -->
    </Elements>
    <NodeSet name="FixXs">
		37, 38, 39, 76, 77, 78, 115, 116, 117, 154, 155, 156, 193, 194, 195, 232, 233, 234, 271, 272, 273, 310, 311, 312, 349, 350, 351, 388, 389, 390, 427, 428, 429, 466, 467, 468, 505, 506, 507, 544, 545, 546, 583, 584, 585, 622, 623, 624, 661, 662, 663, 700, 701, 702, 739, 740, 741, 778, 779, 780, 817, 818, 819, 856, 857, 858, 895, 896, 897, 934, 935, 936, 973, 974, 975, 1012, 1013, 1014, 1051, 1052,
	</NodeSet>
    <NodeSet name="FixYs">
		1, 2, 3, 40, 41, 42, 79, 80, 81, 118, 119, 120, 157, 158, 159, 196, 197, 198, 235, 236, 237, 274, 275, 276, 313, 314, 315, 352, 353, 354, 391, 392, 393, 430, 431, 432, 469, 470, 471, 508, 509, 510, 547, 548, 549, 586, 587, 588, 625, 626, 627, 664, 665, 666, 703, 704, 705, 742, 743, 744, 781, 782, 783, 820, 821, 822, 859, 860, 861, 898, 899, 900, 937, 938, 939, 976, 977, 978, 1015, 1016, 1017, 10
	</NodeSet>
    <Surface name="FixZs">
      <quad9 id="1">1, 3, 9, 7, 2, 6, 8, 4, 5</quad9>
      <quad9 id="2">7, 9, 15, 13, 8, 12, 14, 10, 11</quad9>
      <quad9 id="3">13, 15, 21, 19, 14, 18, 20, 16, 17</quad9>
      <quad9 id="4">19, 21, 27, 25, 20, 24, 26, 22, 23</quad9>
      <quad9 id="5">25, 27, 33, 31, 26, 30, 32, 28, 29</quad9>
      <quad9 id="6">31, 33, 39, 37, 32, 36, 38, 34, 35</quad9>
      <quad9 id="7">3745, 3747, 3753, 3751, 3746, 3750, 3752, 3748, 3749</quad9>
      <quad9 id="8">3751, 3753, 3759, 3757, 3752, 3756, 3758, 3754, 3755</quad9>
      <quad9 id="9">3757, 3759, 3765, 3763, 3758, 3762, 3764, 3760, 3761</quad9>
      <quad9 id="10">3763, 3765, 3771, 3769, 3764, 3768, 3770, 3766, 3767</quad9>
      <quad9 id="11">3769, 3771, 3777, 3775, 3770, 3774, 3776, 3772, 3773</quad9>
      <quad9 id="12">3775, 3777, 3783, 3781, 3776, 3780, 3782, 3778, 3779</quad9>
    </Surface>
    <Surface name="PressureLoad1">
      <quad9 id="1">1, 79, 85, 7, 40, 82, 46, 4, 43</quad9>
      <quad9 id="2">7, 85, 91, 13, 46, 88, 52, 10, 49</quad9>
      <quad9 id="3">13, 91, 97, 19, 52, 94, 58, 16, 55</quad9>
      <quad9 id="4">19, 97, 103, 25, 58, 100, 64, 22, 61</quad9>
      <quad9 id="5">25, 103, 109, 31, 64, 106, 70, 28, 67</quad9>
      <quad9 id="6">31, 109, 115, 37, 70, 112, 76, 34, 73</quad9>
      <quad9 id="7">79, 157, 163, 85, 118, 160, 124, 82, 121</quad9>
      <quad9 id="8">85, 163, 169, 91, 124, 166, 130, 88, 127</quad9>
      <quad9 id="9">91, 169, 175, 97, 130, 172, 136, 94, 133</quad9>
      <quad9 id="10">97, 175, 181, 103, 136, 178, 142, 100, 139</quad9>
      <quad9 id="11">103, 181, 187, 109, 142, 184, 148, 106, 145</quad9>
      <quad9 id="12">109, 187, 193, 115, 148, 190, 154, 112, 151</quad9>
      <quad9 id="13">157, 235, 241, 163, 196, 238, 202, 160, 199</quad9>
      <quad9 id="14">163, 241, 247, 169, 202, 244, 208, 166, 205</quad9>
      <quad9 id="15">169, 247, 253, 175, 208, 250, 214, 172, 211</quad9>
      <quad9 id="16">175, 253, 259, 181, 214, 256, 220, 178, 217</quad9>
      <quad9 id="17">181, 259, 265, 187, 220, 262, 226, 184, 223</quad9>
      <quad9 id="18">187, 265, 271, 193, 226, 268, 232, 190, 229</quad9>
      <quad9 id="19">235, 313, 319, 241, 274, 316, 280, 238, 277</quad9>
      <quad9 id="20">241, 319, 325, 247, 280, 322, 286, 244, 283</quad9>
<!-- ... 268 like lines cut -->
    </Surface>
  </Mesh>
  <MeshDomains>
    <SolidDomain name="Part1" mat="Material1">
      <laugon>1</laugon>
      <atol>1e-3</atol>
      <minaug>0</minaug>
      <maxaug>0</maxaug>
    </SolidDomain>
  </MeshDomains>
  <MeshData />
  <Boundary>
    <bc name="FixXs" type="zero displacement" node_set="FixXs">
      <x_dof>1</x_dof>
      <y_dof>0</y_dof>
      <z_dof>0</z_dof>
    </bc>
    <bc name="FixYs" type="zero displacement" node_set="FixYs">
      <x_dof>0</x_dof>
      <y_dof>1</y_dof>
      <z_dof>0</z_dof>
    </bc>
    <bc name="FixZs" type="zero displacement" node_set="@surface:FixZs">
      <x_dof>0</x_dof>
      <y_dof>0</y_dof>
      <z_dof>1</z_dof>
    </bc>
  </Boundary>
  <Loads>
    <surface_load type="pressure" surface="PressureLoad1">
      <pressure lc="1">13.9868</pressure>
      <linear>0</linear>
      <symmetric_stiffness>0</symmetric_stiffness>
    </surface_load>
  </Loads>
  <LoadData>
    <load_controller id="1" type="loadcurve">
      <interpolate>LINEAR</interpolate>
      <points>
        <point>0,1.0</point>
        <point>1,1.0</point>
        <point>2,1.0</point>
      </points>
    </load_controller>
    <load_controller id="2" type="loadcurve">
      <interpolate>LINEAR</interpolate>
      <points>
        <point>0,0.0</point>
        <point>1,0.0</point>
        <point>101,1.0</point>
      </points>
    </load_controller>
  </LoadData>
  <Output>
    <plotfile type="vtk">
      <var type="displacement" />
      <var type="relative volume" />
      <var type="stress" />
      <var type="SPR stress" />
      <var type="SPR principal stress" />
      <var type="deformation gradient" />
      <var type="strain energy density" />
      <var type="acceleration" />
      <var type="velocity" />
    </plotfile>
  </Output>
</febio_spec>