<?xml version='1.0' encoding='utf-8'?>
<febio_spec version="4.0">
  <Module type="solid" />
  <Control>
    <analysis>STATIC</analysis>
    <time_steps>100</time_steps>
    <step_size>1</step_size>
    <solver>
      <diverge_reform>1</diverge_reform>
      <reform_each_time_step>1</reform_each_time_step>
      <dtol>0</dtol>
      <etol>1e-16</etol>
      <rtol>1e-16</rtol>
      <lstol>0.0</lstol>
      <min_residual>1e-16</min_residual>
      <rhoi>0</rhoi>
      <linear_solver type="mkl_dss" />
      <max_refs>1000</max_refs>
      <qn_method type="Broyden">
        <max_ups>0</max_ups>
      </qn_method>
      <symmetric_stiffness>0</symmetric_stiffness>
    </solver>
  </Control>
  <Globals>
    <Constants>
      <T>0</T>
      <R>0</R>
      <Fc>0</Fc>
    </Constants>
  </Globals>
  <Material>
    <material id="1" name="Material1" type="FSG">
      <density>1</density>
      <k>1000.0</k>
      <elastin_injury_val lc="2" type="math">injury_map</elastin_injury_val>
      <e_r type="math"> X/sqrt(X^2 + Y^2), Y/sqrt(X^2 + Y^2), 0 </e_r>
      <e_t type="math"> -Y/sqrt(X^2 + Y^2), X/sqrt(X^2 + Y^2), 0 </e_t>
      <e_z type="math"> 0, 0, 1 </e_z>
    </material>
  </Material>
  <Mesh>
    <Nodes name="Object01">
      <node id="1">0.6468, 0.0, -7.5</node>
      <node id="2">0.6669, 0.0, -7.5</node>
      <node id="3">0.687, 0.0, -7.5</node>
      <node id="4">0.6247608244437695, 0.16740415837231046, -7.5</node>
      <node id="5">0.6441759335521797, 0.17260642117887112, -7.5</node>
      <node id="6">0.6635910426605901, 0.1778086839854318, -7.5</node>
      <node id="7">0.5601452311677749, 0.32339999999999997, -7.5</node>
      <node id="8">0.5775523417838422, 0.33344999999999997, -7.5</node>
      <node id="9">0.5949594523999093, 0.34349999999999997, -7.5</node>
      <node id="10">0.4573566660714591, 0.457356666071459, -7.5</node>
      <node id="11">0.4715695123733087, 0.47156951237330863, -7.5</node>
      <node id="12">0.4857823586751583, 0.48578235867515823, -7.5</node>
      <node id="13">0.3234000000000001, 0.5601452311677748, -7.5</node>
      <node id="14">0.3334500000000001, 0.5775523417838421, -7.5</node>
      <node id="15">0.3435000000000001, 0.5949594523999093, -7.5</node>
      <node id="16">0.16740415837231046, 0.6247608244437695, -7.5</node>
      <node id="17">0.17260642117887112, 0.6441759335521797, -7.5</node>
      <node id="18">0.1778086839854318, 0.6635910426605901, -7.5</node>
      <node id="19">3.9605077484425405e-17, 0.6468, -7.5</node>
      <node id="20">4.0835847517568497e-17, 0.6669, -7.5</node>
<!-- ... 3508 like lines cut -->
    </Nodes>
    <Elements type="hex27" mat="1" name="Part1">
      <elem id="1">1, 7, 151, 145, 3, 9, 153, 147, 4, 79, 148, 73, 6, 81, 150, 75, 2, 8, 152, 146, 5, 80, 149, 74, 76, 78, 77</elem>
      <elem id="2">7, 13, 157, 151, 9, 15, 159, 153, 10, 85, 154, 79, 12, 87, 156, 81, 8, 14, 158, 152, 11, 86, 155, 80, 82, 84, 83</elem>
      <elem id="3">13, 19, 163, 157, 15, 21, 165, 159, 16, 91, 160, 85, 18, 93, 162, 87, 14, 20, 164, 158, 17, 92, 161, 86, 88, 90, 89</elem>
      <elem id="4">19, 25, 169, 163, 21, 27, 171, 165, 22, 97, 166, 91, 24, 99, 168, 93, 20, 26, 170, 164, 23, 98, 167, 92, 94, 96, 95</elem>
      <elem id="5">25, 31, 175, 169, 27, 33, 177, 171, 28, 103, 172, 97, 30, 105, 174, 99, 26, 32, 176, 170, 29, 104, 173, 98, 100, 102, 101</elem>
      <elem id="6">31, 37, 181, 175, 33, 39, 183, 177, 34, 109, 178, 103, 36, 111, 180, 105, 32, 38, 182, 176, 35, 110, 179, 104, 106, 108, 107</elem>
      <elem id="7">37, 43, 187, 181, 39, 45, 189, 183, 40, 115, 184, 109, 42, 117, 186, 111, 38, 44, 188, 182, 41, 116, 185, 110, 112, 114, 113</elem>
      <elem id="8">43, 49, 193, 187, 45, 51, 195, 189, 46, 121, 190, 115, 48, 123, 192, 117, 44, 50, 194, 188, 47, 122, 191, 116, 118, 120, 119</elem>
      <elem id="9">49, 55, 199, 193, 51, 57, 201, 195, 52, 127, 196, 121, 54, 129, 198, 123, 50, 56, 200, 194, 53, 128, 197, 122, 124, 126, 125</elem>
      <elem id="10">55, 61, 205, 199, 57, 63, 207, 201, 58, 133, 202, 127, 60, 135, 204, 129, 56, 62, 206, 200, 59, 134, 203, 128, 130, 132, 131</elem>
      <elem id="11">61, 67, 211, 205, 63, 69, 213, 207, 64, 139, 208, 133, 66, 141, 210, 135, 62, 68, 212, 206, 65, 140, 209, 134, 136, 138, 137</elem>
      <elem id="12">67, 1, 145, 211, 69, 3, 147, 213, 70, 73, 214, 139, 72, 75, 216, 141, 68, 2, 146, 212, 71, 74, 215, 140, 142, 144, 143</elem>
      <elem id="13">145, 151, 295, 289, 147, 153, 297, 291, 148, 223, 292, 217, 150, 225, 294, 219, 146, 152, 296, 290, 149, 224, 293, 218, 220, 222, 221</elem>
      <elem id="14">151, 157, 301, 295, 153, 159, 303, 297, 154, 229, 298, 223, 156, 231, 300, 225, 152, 158, 302, 296, 155, 230, 299, 224, 226, 228, 227</elem>
      <elem id="15">157, 163, 307, 301, 159, 165, 309, 303, 160, 235, 304, 229, 162, 237, 306, 231, 158, 164, 308, 302, 161, 236, 305, 230, 232, 234, 233</elem>
      <elem id="16">163, 169, 313, 307, 165, 171, 315, 309, 166, 241, 310, 235, 168, 243, 312, 237, 164, 170, 314, 308, 167, 242, 311, 236, 238, 240, 239</elem>
      <elem id="17">169, 175, 319, 313, 171, 177, 321, 315, 172, 247, 316, 241, 174, 249, 318, 243, 170, 176, 320, 314, 173, 248, 317, 242, 244, 246, 245</elem>
      <elem id="18">175, 181, 325, 319, 177, 183, 327, 321, 178, 253, 322, 247, 180, 255, 324, 249, 176, 182, 326, 320, 179, 254, 323, 248, 250, 252, 251</elem>
      <elem id="19">181, 187, 331, 325, 183, 189, 333, 327, 184, 259, 328, 253, 186, 261, 330, 255, 182, 188, 332, 326, 185, 260, 329, 254, 256, 258, 257</elem>
      <elem id="20">187, 193, 337, 331, 189, 195, 339, 333, 190, 265, 334, 259, 192, 267, 336, 261, 188, 194, 338, 332, 191, 266, 335, 260, 262, 264, 263</elem>
<!-- ... 268 like lines cut -->
    </Elements>
    <NodeSet name="FixXs">
		19, 55, 3475, 3511
	</NodeSet>
    <NodeSet name="FixYs">
		1, 37, 3457, 3493
	</NodeSet>
    <Surface name="FixZs">
      <quad9 id="1">1, 3, 9, 7, 2, 6, 8, 4, 5</quad9>
      <quad9 id="2">7, 9, 15, 13, 8, 12, 14, 10, 11</quad9>
      <quad9 id="3">13, 15, 21, 19, 14, 18, 20, 16, 17</quad9>
      <quad9 id="4">19, 21, 27, 25, 20, 24, 26, 22, 23</quad9>
      <quad9 id="5">25, 27, 33, 31, 26, 30, 32, 28, 29</quad9>
      <quad9 id="6">31, 33, 39, 37, 32, 36, 38, 34, 35</quad9>
      <quad9 id="7">37, 39, 45, 43, 38, 42, 44, 40, 41</quad9>
      <quad9 id="8">43, 45, 51, 49, 44, 48, 50, 46, 47</quad9>
      <quad9 id="9">49, 51, 57, 55, 50, 54, 56, 52, 53</quad9>
      <quad9 id="10">55, 57, 63, 61, 56, 60, 62, 58, 59</quad9>
      <quad9 id="11">61, 63, 69, 67, 62, 66, 68, 64, 65</quad9>
      <quad9 id="12">67, 69, 3, 1, 68, 72, 2, 70, 71</quad9>
      <quad9 id="13">3457, 3459, 3465, 3463, 3458, 3462, 3464, 3460, 3461</quad9>
      <quad9 id="14">3463, 3465, 3471, 3469, 3464, 3468, 3470, 3466, 3467</quad9>
      <quad9 id="15">3469, 3471, 3477, 3475, 3470, 3474, 3476, 3472, 3473</quad9>
      <quad9 id="16">3475, 3477, 3483, 3481, 3476, 3480, 3482, 3478, 3479</quad9>
      <quad9 id="17">3481, 3483, 3489, 3487, 3482, 3486, 3488, 3484, 3485</quad9>
      <quad9 id="18">3487, 3489, 3495, 3493, 3488, 3492, 3494, 3490, 3491</quad9>
      <quad9 id="19">3493, 3495, 3501, 3499, 3494, 3498, 3500, 3496, 3497</quad9>
      <quad9 id="20">3499, 3501, 3507, 3505, 3500, 3504, 3506, 3502, 3503</quad9>
<!-- ... 4 like lines cut -->
    </Surface>
    <Surface name="PressureLoad1">
      <quad9 id="1">1, 145, 151, 7, 73, 148, 79, 4, 76</quad9>
      <quad9 id="2">7, 151, 157, 13, 79, 154, 85, 10, 82</quad9>
      <quad9 id="3">13, 157, 163, 19, 85, 160, 91, 16, 88</quad9>
      <quad9 id="4">19, 163, 169, 25, 91, 166, 97, 22, 94</quad9>
      <quad9 id="5">25, 169, 175, 31, 97, 172, 103, 28, 100</quad9>
      <quad9 id="6">31, 175, 181, 37, 103, 178, 109, 34, 106</quad9>
      <quad9 id="7">37, 181, 187, 43, 109, 184, 115, 40, 112</quad9>
      <quad9 id="8">43, 187, 193, 49, 115, 190, 121, 46, 118</quad9>
      <quad9 id="9">49, 193, 199, 55, 121, 196, 127, 52, 124</quad9>
      <quad9 id="10">55, 199, 205, 61, 127, 202, 133, 58, 130</quad9>
      <quad9 id="11">61, 205, 211, 67, 133, 208, 139, 64, 136</quad9>
      <quad9 id="12">67, 211, 145, 1, 139, 214, 73, 70, 142</quad9>
      <quad9 id="13">145, 289, 295, 151, 217, 292, 223, 148, 220</quad9>
      <quad9 id="14">151, 295, 301, 157, 223, 298, 229, 154, 226</quad9>
      <quad9 id="15">157, 301, 307, 163, 229, 304, 235, 160, 232</quad9>
      <quad9 id="16">163, 307, 313, 169, 235, 310, 241, 166, 238</quad9>
      <quad9 id="17">169, 313, 319, 175, 241, 316, 247, 172, 244</quad9>
      <quad9 id="18">175, 319, 325, 181, 247, 322, 253, 178, 250</quad9>
      <quad9 id="19">181, 325, 331, 187, 253, 328, 259, 184, 256</quad9>
      <quad9 id="20">187, 331, 337, 193, 259, 334, 265, 190, 262</quad9>
<!-- ... 268 like lines cut -->
    </Surface>
  </Mesh>
  <MeshDomains>
    <SolidDomain name="Part1" mat="Material1">
      <laugon>1</laugon>
      <atol>1e-3</atol>
      <minaug>0</minaug>
      <maxaug>0</maxaug>
    </SolidDomain>
  </MeshDomains>
  <MeshData>
    <ElementData name="injury_map" elem_set="Part1">
      <elem lid="1">0.0</elem>
      <elem lid="2">0.0</elem>
      <elem lid="3">0.0</elem>
      <elem lid="4">0.0</elem>
      <elem lid="5">0.0</elem>
      <elem lid="6">0.0</elem>
      <elem lid="7">0.0</elem>
      <elem lid="8">0.0</elem>
      <elem lid="9">0.0</elem>
      <elem lid="10">0.0</elem>
      <elem lid="11">0.0</elem>
      <elem lid="12">0.0</elem>
      <elem lid="13">0.0</elem>
      <elem lid="14">0.0</elem>
      <elem lid="15">0.0</elem>
      <elem lid="16">0.0</elem>
      <elem lid="17">0.0</elem>
      <elem lid="18">0.0</elem>
      <elem lid="19">0.0</elem>
      <elem lid="20">0.0</elem>
<!-- ... 268 like lines cut -->
    </ElementData>
  </MeshData>
  <Boundary>
    <bc name="FixXs" type="zero displacement" node_set="FixXs">
      <x_dof>1</x_dof>
      <y_dof>0</y_dof>
      <z_dof>0</z_dof>
    </bc>
    <bc name="FixYs" type="zero displacement" node_set="FixYs">
      <x_dof>0</x_dof>
      <y_dof>1</y_dof>
      <z_dof>0</z_dof>
    </bc>
    <bc name="FixZs" type="zero displacement" node_set="@surface:FixZs">
      <x_dof>0</x_dof>
      <y_dof>0</y_dof>
      <z_dof>1</z_dof>
    </bc>
  </Boundary>
  <Loads>
    <surface_load type="pressure" surface="PressureLoad1">
      <pressure lc="1">13.9868</pressure>
      <linear>0</linear>
      <symmetric_stiffness>0</symmetric_stiffness>
    </surface_load>
  </Loads>
  <LoadData>
    <load_controller id="1" type="loadcurve">
      <interpolate>LINEAR</interpolate>
      <points>
        <point>0,1.0</point>
        <point>1,1.0</point>
        <point>2,1.0</point>
      </points>
    </load_controller>
    <load_controller id="2" type="loadcurve">
      <interpolate>LINEAR</interpolate>
      <points>
        <point>0,0.0</point>
        <point>1,0.0</point>
        <point>10,1.0</point>
      </points>
    </load_controller>
  </LoadData>
  <Output>
    <plotfile type="vtk">
      <var type="displacement" />
      <var type="relative volume" />
      <var type="stress" />
      <var type="SPR stress" />
      <var type="SPR principal stress" />
      <var type="deformation gradient" />
      <var type="strain energy density" />
      <var type="acceleration" />
      <var type="velocity" />
    </plotfile>
  </Output>
</febio_spec>