<?xml version='1.0' encoding='utf-8'?>
<febio_spec version="4.0">
  <Module type="solid" />
  <Control>
    <analysis>STATIC</analysis>
    <time_steps>1440</time_steps>
    <step_size>1</step_size>
    <solver>
      <diverge_reform>1</diverge_reform>
      <reform_each_time_step>1</reform_each_time_step>
      <dtol>0</dtol>
      <etol>1e-16</etol>
      <rtol>1e-16</rtol>
      <lstol>0.0</lstol>
      <min_residual>1e-16</min_residual>
      <rhoi>0</rhoi>
      <linear_solver type="mkl_dss" />
      <max_refs>1000</max_refs>
      <qn_method type="BFGS">
        <max_ups>0</max_ups>
      </qn_method>
      <symmetric_stiffness>1</symmetric_stiffness>
    </solver>
  </Control>
  <Globals>
    <Constants>
      <T>0</T>
      <R>0</R>
      <Fc>0</Fc>
    </Constants>
  </Globals>
  <Material>
    <material id="1" name="Material1" type="FSG">
      <density>1</density>
      <k>1000.0</k>
      <a_val lc="2" type="math"> (0.1 + (1.0 - 0.1) * exp(-abs((Z - 0.0) / 3.0) ^ 5.0))</a_val>
      <e_r type="math"> X/sqrt(X^2 + Y^2), Y/sqrt(X^2 + Y^2), 0 </e_r>
      <e_t type="math"> -Y/sqrt(X^2 + Y^2), X/sqrt(X^2 + Y^2), 0 </e_t>
      <e_z type="math"> 0, 0, 1 </e_z>
    </material>
  </Material>
  <Mesh>
    <Nodes name="Object01">
      <node id="1">0.6468, 0.0, -7.5</node>
      <node id="2">0.687, 0.0, -7.5</node>
      <node id="3">0.6151433547397054, 0.19987219196171602, -7.5</node>
      <node id="4">0.6533758266947706, 0.21229467513558892, -7.5</node>
      <node id="5">0.5232721919617161, 0.38017950118277155, -7.5</node>
      <node id="6">0.555794675135589, 0.403808468324929, -7.5</node>
      <node id="7">0.38017950118277166, 0.523272191961716, -7.5</node>
      <node id="8">0.40380846832492906, 0.5557946751355889, -7.5</node>
      <node id="9">0.19987219196171607, 0.6151433547397054, -7.5</node>
      <node id="10">0.21229467513558894, 0.6533758266947706, -7.5</node>
      <node id="11">3.9605077484425405e-17, 0.6468, -7.5</node>
      <node id="12">4.206661755071159e-17, 0.687, -7.5</node>
      <node id="13">0.6468, 0.0, -7.3828125</node>
      <node id="14">0.687, 0.0, -7.3828125</node>
      <node id="15">0.6151433547397054, 0.19987219196171602, -7.3828125</node>
      <node id="16">0.6533758266947706, 0.21229467513558892, -7.3828125</node>
      <node id="17">0.5232721919617161, 0.38017950118277155, -7.3828125</node>
      <node id="18">0.555794675135589, 0.403808468324929, -7.3828125</node>
      <node id="19">0.38017950118277166, 0.523272191961716, -7.3828125</node>
      <node id="20">0.40380846832492906, 0.5557946751355889, -7.3828125</node>
<!-- ... 760 like lines cut -->
    </Nodes>
    <Elements type="hex8" mat="1" name="Part1">
      <elem id="1">1, 3, 15, 13, 2, 4, 16, 14</elem>
      <elem id="2">3, 5, 17, 15, 4, 6, 18, 16</elem>
      <elem id="3">5, 7, 19, 17, 6, 8, 20, 18</elem>
      <elem id="4">7, 9, 21, 19, 8, 10, 22, 20</elem>
      <elem id="5">9, 11, 23, 21, 10, 12, 24, 22</elem>
      <elem id="6">13, 15, 27, 25, 14, 16, 28, 26</elem>
      <elem id="7">15, 17, 29, 27, 16, 18, 30, 28</elem>
      <elem id="8">17, 19, 31, 29, 18, 20, 32, 30</elem>
      <elem id="9">19, 21, 33, 31, 20, 22, 34, 32</elem>
      <elem id="10">21, 23, 35, 33, 22, 24, 36, 34</elem>
      <elem id="11">25, 27, 39, 37, 26, 28, 40, 38</elem>
      <elem id="12">27, 29, 41, 39, 28, 30, 42, 40</elem>
      <elem id="13">29, 31, 43, 41, 30, 32, 44, 42</elem>
      <elem id="14">31, 33, 45, 43, 32, 34, 46, 44</elem>
      <elem id="15">33, 35, 47, 45, 34, 36, 48, 46</elem>
      <elem id="16">37, 39, 51, 49, 38, 40, 52, 50</elem>
      <elem id="17">39, 41, 53, 51, 40, 42, 54, 52</elem>
      <elem id="18">41, 43, 55, 53, 42, 44, 56, 54</elem>
      <elem id="19">43, 45, 57, 55, 44, 46, 58, 56</elem>
      <elem id="20">45, 47, 59, 57, 46, 48, 60, 58</elem>
<!-- ... 300 like lines cut -->
    </Elements>
    <NodeSet name="FixXs">
		11, 12, 23, 24, 35, 36, 47, 48, 59, 60, 71, 72, 83, 84, 95, 96, 107, 108, 119, 120, 131, 132, 143, 144, 155, 156, 167, 168, 179, 180, 191, 192, 203, 204, 215, 216, 227, 228, 239, 240, 251, 252, 263, 264, 275, 276, 287, 288, 299, 300, 311, 312, 323, 324, 335, 336, 347, 348, 359, 360, 371, 372, 383, 384, 395, 396, 407, 408, 419, 420, 431, 432, 443, 444, 455, 456, 467, 468, 479, 480, 491, 492, 503,
	</NodeSet>
    <NodeSet name="FixYs">
		1, 2, 13, 14, 25, 26, 37, 38, 49, 50, 61, 62, 73, 74, 85, 86, 97, 98, 109, 110, 121, 122, 133, 134, 145, 146, 157, 158, 169, 170, 181, 182, 193, 194, 205, 206, 217, 218, 229, 230, 241, 242, 253, 254, 265, 266, 277, 278, 289, 290, 301, 302, 313, 314, 325, 326, 337, 338, 349, 350, 361, 362, 373, 374, 385, 386, 397, 398, 409, 410, 421, 422, 433, 434, 445, 446, 457, 458, 469, 470, 481, 482, 493, 494
	</NodeSet>
    <Surface name="FixZs">
      <quad4 id="1">1, 2, 4, 3</quad4>
      <quad4 id="2">3, 4, 6, 5</quad4>
      <quad4 id="3">5, 6, 8, 7</quad4>
      <quad4 id="4">7, 8, 10, 9</quad4>
      <quad4 id="5">9, 10, 12, 11</quad4>
      <quad4 id="6">769, 770, 772, 771</quad4>
      <quad4 id="7">771, 772, 774, 773</quad4>
      <quad4 id="8">773, 774, 776, 775</quad4>
      <quad4 id="9">775, 776, 778, 777</quad4>
      <quad4 id="10">777, 778, 780, 779</quad4>
    </Surface>
    <Surface name="PressureLoad1">
      <quad4 id="1">1, 13, 15, 3</quad4>
      <quad4 id="2">3, 15, 17, 5</quad4>
      <quad4 id="3">5, 17, 19, 7</quad4>
      <quad4 id="4">7, 19, 21, 9</quad4>
      <quad4 id="5">9, 21, 23, 11</quad4>
      <quad4 id="6">13, 25, 27, 15</quad4>
      <quad4 id="7">15, 27, 29, 17</quad4>
      <quad4 id="8">17, 29, 31, 19</quad4>
      <quad4 id="9">19, 31, 33, 21</quad4>
      <quad4 id="10">21, 33, 35, 23</quad4>
      <quad4 id="11">25, 37, 39, 27</quad4>
      <quad4 id="12">27, 39, 41, 29</quad4>
      <quad4 id="13">29, 41, 43, 31</quad4>
      <quad4 id="14">31, 43, 45, 33</quad4>
      <quad4 id="15">33, 45, 47, 35</quad4>
      <quad4 id="16">37, 49, 51, 39</quad4>
      <quad4 id="17">39, 51, 53, 41</quad4>
      <quad4 id="18">41, 53, 55, 43</quad4>
      <quad4 id="19">43, 55, 57, 45</quad4>
      <quad4 id="20">45, 57, 59, 47</quad4>
<!-- ... 300 like lines cut -->
    </Surface>
  </Mesh>
  <MeshDomains>
    <SolidDomain name="Part1" mat="Material1" type="three-field-solid">
      <laugon>1</laugon>
      <atol>1e-6</atol>
      <maxaug>6</maxaug>
    </SolidDomain>
  </MeshDomains>
  <Boundary>
    <bc name="FixYs" type="zero displacement" node_set="FixYs">
      <x_dof>0</x_dof>
      <y_dof>1</y_dof>
      <z_dof>0</z_dof>
    </bc>
    <bc name="FixZs" type="zero displacement" node_set="@surface:FixZs">
      <x_dof>0</x_dof>
      <y_dof>0</y_dof>
      <z_dof>1</z_dof>
    </bc>
    <bc name="FixXs" type="zero displacement" node_set="FixXs">
      <x_dof>1</x_dof>
      <y_dof>0</y_dof>
      <z_dof>0</z_dof>
    </bc>
  </Boundary>
  <Loads>
    <surface_load type="pressure" surface="PressureLoad1">
      <pressure lc="1">13.9868</pressure>
      <linear>0</linear>
      <symmetric_stiffness>0</symmetric_stiffness>
    </surface_load>
  </Loads>
  <LoadData>
    <load_controller id="1" type="loadcurve">
      <interpolate>LINEAR</interpolate>
      <points>
        <point>0,1.0</point>
        <point>1,1.0</point>
      </points>
    </load_controller>
    <load_controller id="2" type="loadcurve">
      <interpolate>LINEAR</interpolate>
      <points>
        <point>0,0.0</point>
        <point>1,0.0</point>
        <point>11,1.0</point>
      </points>
    </load_controller>
  </LoadData>
  <Output>
    <plotfile type="vtk">
      <var type="displacement" />
      <var type="relative volume" />
      <var type="stress" />
      <var type="SPR stress" />
      <var type="SPR principal stress" />
      <var type="deformation gradient" />
      <var type="strain energy density" />
      <var type="acceleration" />
      <var type="velocity" />
    </plotfile>
  </Output>
</febio_spec>