<?xml version='1.0' encoding='utf-8'?>
<febio_spec version="4.0">
  <Module type="solid" />
  <Control>
    <analysis>STATIC</analysis>
    <time_steps>1441</time_steps>
    <step_size>1</step_size>
    <solver>
      <diverge_reform>1</diverge_reform>
      <reform_each_time_step>1</reform_each_time_step>
      <dtol>0</dtol>
      <etol>1e-12</etol>
      <rtol>1e-12</rtol>
      <lstol>0.0</lstol>
      <min_residual>1e-12</min_residual>
      <rhoi>0</rhoi>
      <linear_solver type="mkl_dss" />
      <max_refs>100</max_refs>
      <qn_method type="Broyden">
        <max_ups>0</max_ups>
      </qn_method>
      <symmetric_stiffness>0</symmetric_stiffness>
    </solver>
  </Control>
  <Globals>
    <Constants>
      <T>0</T>
      <R>0</R>
      <Fc>0</Fc>
    </Constants>
  </Globals>
  <Material>
    <material id="1" name="Material1" type="FSG">
      <density>1</density>
      <k>2000.0</k>
      <elastin_injury_val lc="2" type="math"> VVV * exp(-abs((Z - 0.0) / 3.0) ^ 5.0) * exp(-abs(atan2(Y,X) / (pi/2.0)) ^ 5.0))</elastin_injury_val>
      <production_mechanosensitivity_injury_val lc="2" type="math"> VVV * exp(-abs((Z - 0.0) / 3.0) ^ 5.0) * exp(-abs(atan2(Y,X) / (pi/2.0)) ^ 5.0))</production_mechanosensitivity_injury_val>
      <degradation_mechanosensitivity_injury_val lc="2" type="math"> VVV * exp(-abs((Z - 0.0) / 3.0) ^ 5.0) * exp(-abs(atan2(Y,X) / (pi/2.0)) ^ 5.0))</degradation_mechanosensitivity_injury_val>
      <e_r type="math"> X/sqrt(X^2 + Y^2), Y/sqrt(X^2 + Y^2), 0 </e_r>
      <e_t type="math"> -Y/sqrt(X^2 + Y^2), X/sqrt(X^2 + Y^2), 0 </e_t>
      <e_z type="math"> 0, 0, 1 </e_z>
      <pressure_model>0</pressure_model>
    </material>
  </Material>
  <Mesh>
    <Nodes name="Object01">
      <node id="1">0.6468, 0.0, -7.5</node>
      <node id="2">0.6669, 0.0, -7.5</node>
      <node id="3">0.687, 0.0, -7.5</node>
      <node id="4">0.6448061314585872, 0.050747343116770115, -7.5</node>
      <node id="5">0.6648441698666231, 0.0523243709408998, -7.5</node>
      <node id="6">0.684882208274659, 0.05390139876502948, -7.5</node>
      <node id="7">0.6388368186969352, 0.10118181198802133, -7.5</node>
      <node id="8">0.6586893543428974, 0.10432614473532997, -7.5</node>
      <node id="9">0.6785418899888597, 0.10747047748263862, -7.5</node>
      <node id="10">0.6289288645132173, 0.15099246134199962, -7.5</node>
      <node id="11">0.6484734999132106, 0.1556847131555033, -7.5</node>
      <node id="12">0.6680181353132039, 0.16037696496900702, -7.5</node>
      <node id="13">0.6151433547397054, 0.199872191961716, -7.5</node>
      <node id="14">0.6342595907172379, 0.20608343354865244, -7.5</node>
      <node id="15">0.6533758266947706, 0.2122946751355889, -7.5</node>
      <node id="16">0.5975652816283002, 0.24751964405374008, -7.5</node>
      <node id="17">0.6161352602317771, 0.2552115810442784, -7.5</node>
      <node id="18">0.6347052388352541, 0.2629035180348167, -7.5</node>
      <node id="19">0.5763030198450364, 0.2936410552315389, -7.5</node>
      <node id="20">0.5942122509812225, 0.30276626427630376, -7.5</node>
<!-- ... 19783 like lines cut -->
    </Nodes>
    <Elements type="hex27" mat="1" name="Part1">
      <elem id="1">1, 7, 253, 247, 3, 9, 255, 249, 4, 130, 250, 124, 6, 132, 252, 126, 2, 8, 254, 248, 5, 131, 251, 125, 127, 129, 128</elem>
      <elem id="2">7, 13, 259, 253, 9, 15, 261, 255, 10, 136, 256, 130, 12, 138, 258, 132, 8, 14, 260, 254, 11, 137, 257, 131, 133, 135, 134</elem>
      <elem id="3">13, 19, 265, 259, 15, 21, 267, 261, 16, 142, 262, 136, 18, 144, 264, 138, 14, 20, 266, 260, 17, 143, 263, 137, 139, 141, 140</elem>
      <elem id="4">19, 25, 271, 265, 21, 27, 273, 267, 22, 148, 268, 142, 24, 150, 270, 144, 20, 26, 272, 266, 23, 149, 269, 143, 145, 147, 146</elem>
      <elem id="5">25, 31, 277, 271, 27, 33, 279, 273, 28, 154, 274, 148, 30, 156, 276, 150, 26, 32, 278, 272, 29, 155, 275, 149, 151, 153, 152</elem>
      <elem id="6">31, 37, 283, 277, 33, 39, 285, 279, 34, 160, 280, 154, 36, 162, 282, 156, 32, 38, 284, 278, 35, 161, 281, 155, 157, 159, 158</elem>
      <elem id="7">37, 43, 289, 283, 39, 45, 291, 285, 40, 166, 286, 160, 42, 168, 288, 162, 38, 44, 290, 284, 41, 167, 287, 161, 163, 165, 164</elem>
      <elem id="8">43, 49, 295, 289, 45, 51, 297, 291, 46, 172, 292, 166, 48, 174, 294, 168, 44, 50, 296, 290, 47, 173, 293, 167, 169, 171, 170</elem>
      <elem id="9">49, 55, 301, 295, 51, 57, 303, 297, 52, 178, 298, 172, 54, 180, 300, 174, 50, 56, 302, 296, 53, 179, 299, 173, 175, 177, 176</elem>
      <elem id="10">55, 61, 307, 301, 57, 63, 309, 303, 58, 184, 304, 178, 60, 186, 306, 180, 56, 62, 308, 302, 59, 185, 305, 179, 181, 183, 182</elem>
      <elem id="11">61, 67, 313, 307, 63, 69, 315, 309, 64, 190, 310, 184, 66, 192, 312, 186, 62, 68, 314, 308, 65, 191, 311, 185, 187, 189, 188</elem>
      <elem id="12">67, 73, 319, 313, 69, 75, 321, 315, 70, 196, 316, 190, 72, 198, 318, 192, 68, 74, 320, 314, 71, 197, 317, 191, 193, 195, 194</elem>
      <elem id="13">73, 79, 325, 319, 75, 81, 327, 321, 76, 202, 322, 196, 78, 204, 324, 198, 74, 80, 326, 320, 77, 203, 323, 197, 199, 201, 200</elem>
      <elem id="14">79, 85, 331, 325, 81, 87, 333, 327, 82, 208, 328, 202, 84, 210, 330, 204, 80, 86, 332, 326, 83, 209, 329, 203, 205, 207, 206</elem>
      <elem id="15">85, 91, 337, 331, 87, 93, 339, 333, 88, 214, 334, 208, 90, 216, 336, 210, 86, 92, 338, 332, 89, 215, 335, 209, 211, 213, 212</elem>
      <elem id="16">91, 97, 343, 337, 93, 99, 345, 339, 94, 220, 340, 214, 96, 222, 342, 216, 92, 98, 344, 338, 95, 221, 341, 215, 217, 219, 218</elem>
      <elem id="17">97, 103, 349, 343, 99, 105, 351, 345, 100, 226, 346, 220, 102, 228, 348, 222, 98, 104, 350, 344, 101, 227, 347, 221, 223, 225, 224</elem>
      <elem id="18">103, 109, 355, 349, 105, 111, 357, 351, 106, 232, 352, 226, 108, 234, 354, 228, 104, 110, 356, 350, 107, 233, 353, 227, 229, 231, 230</elem>
      <elem id="19">109, 115, 361, 355, 111, 117, 363, 357, 112, 238, 358, 232, 114, 240, 360, 234, 110, 116, 362, 356, 113, 239, 359, 233, 235, 237, 236</elem>
      <elem id="20">115, 121, 367, 361, 117, 123, 369, 363, 118, 244, 364, 238, 120, 246, 366, 240, 116, 122, 368, 362, 119, 245, 365, 239, 241, 243, 242</elem>
<!-- ... 1580 like lines cut -->
    </Elements>
    <NodeSet name="FixXs">
		61
	</NodeSet>
    <NodeSet name="FixYs">
		1, 2, 3, 121, 122, 123, 124, 125, 126, 244, 245, 246, 247, 248, 249, 367, 368, 369, 370, 371, 372, 490, 491, 492, 493, 494, 495, 613, 614, 615, 616, 617, 618, 736, 737, 738, 739, 740, 741, 859, 860, 861, 862, 863, 864, 982, 983, 984, 985, 986, 987, 1105, 1106, 1107, 1108, 1109, 1110, 1228, 1229, 1230, 1231, 1232, 1233, 1351, 1352, 1353, 1354, 1355, 1356, 1474, 1475, 1476, 1477, 1478, 1479, 1597,
	</NodeSet>
    <Surface name="FixZs">
      <quad9 id="1">1, 3, 9, 7, 2, 6, 8, 4, 5</quad9>
      <quad9 id="2">7, 9, 15, 13, 8, 12, 14, 10, 11</quad9>
      <quad9 id="3">13, 15, 21, 19, 14, 18, 20, 16, 17</quad9>
      <quad9 id="4">19, 21, 27, 25, 20, 24, 26, 22, 23</quad9>
      <quad9 id="5">25, 27, 33, 31, 26, 30, 32, 28, 29</quad9>
      <quad9 id="6">31, 33, 39, 37, 32, 36, 38, 34, 35</quad9>
      <quad9 id="7">37, 39, 45, 43, 38, 42, 44, 40, 41</quad9>
      <quad9 id="8">43, 45, 51, 49, 44, 48, 50, 46, 47</quad9>
      <quad9 id="9">49, 51, 57, 55, 50, 54, 56, 52, 53</quad9>
      <quad9 id="10">55, 57, 63, 61, 56, 60, 62, 58, 59</quad9>
      <quad9 id="11">61, 63, 69, 67, 62, 66, 68, 64, 65</quad9>
      <quad9 id="12">67, 69, 75, 73, 68, 72, 74, 70, 71</quad9>
      <quad9 id="13">73, 75, 81, 79, 74, 78, 80, 76, 77</quad9>
      <quad9 id="14">79, 81, 87, 85, 80, 84, 86, 82, 83</quad9>
      <quad9 id="15">85, 87, 93, 91, 86, 90, 92, 88, 89</quad9>
      <quad9 id="16">91, 93, 99, 97, 92, 96, 98, 94, 95</quad9>
      <quad9 id="17">97, 99, 105, 103, 98, 102, 104, 100, 101</quad9>
      <quad9 id="18">103, 105, 111, 109, 104, 108, 110, 106, 107</quad9>
      <quad9 id="19">109, 111, 117, 115, 110, 114, 116, 112, 113</quad9>
      <quad9 id="20">115, 117, 123, 121, 116, 120, 122, 118, 119</quad9>
<!-- ... 20 like lines cut -->
    </Surface>
    <Surface name="PressureLoad1">
      <quad9 id="1">1, 247, 253, 7, 124, 250, 130, 4, 127</quad9>
      <quad9 id="2">7, 253, 259, 13, 130, 256, 136, 10, 133</quad9>
      <quad9 id="3">13, 259, 265, 19, 136, 262, 142, 16, 139</quad9>
      <quad9 id="4">19, 265, 271, 25, 142, 268, 148, 22, 145</quad9>
      <quad9 id="5">25, 271, 277, 31, 148, 274, 154, 28, 151</quad9>
      <quad9 id="6">31, 277, 283, 37, 154, 280, 160, 34, 157</quad9>
      <quad9 id="7">37, 283, 289, 43, 160, 286, 166, 40, 163</quad9>
      <quad9 id="8">43, 289, 295, 49, 166, 292, 172, 46, 169</quad9>
      <quad9 id="9">49, 295, 301, 55, 172, 298, 178, 52, 175</quad9>
      <quad9 id="10">55, 301, 307, 61, 178, 304, 184, 58, 181</quad9>
      <quad9 id="11">61, 307, 313, 67, 184, 310, 190, 64, 187</quad9>
      <quad9 id="12">67, 313, 319, 73, 190, 316, 196, 70, 193</quad9>
      <quad9 id="13">73, 319, 325, 79, 196, 322, 202, 76, 199</quad9>
      <quad9 id="14">79, 325, 331, 85, 202, 328, 208, 82, 205</quad9>
      <quad9 id="15">85, 331, 337, 91, 208, 334, 214, 88, 211</quad9>
      <quad9 id="16">91, 337, 343, 97, 214, 340, 220, 94, 217</quad9>
      <quad9 id="17">97, 343, 349, 103, 220, 346, 226, 100, 223</quad9>
      <quad9 id="18">103, 349, 355, 109, 226, 352, 232, 106, 229</quad9>
      <quad9 id="19">109, 355, 361, 115, 232, 358, 238, 112, 235</quad9>
      <quad9 id="20">115, 361, 367, 121, 238, 364, 244, 118, 241</quad9>
<!-- ... 1580 like lines cut -->
    </Surface>
  </Mesh>
  <MeshDomains>
    <SolidDomain name="Part1" mat="Material1">
      <laugon>1</laugon>
      <atol>1e-3</atol>
      <minaug>0</minaug>
      <maxaug>0</maxaug>
    </SolidDomain>
  </MeshDomains>
  <MeshData />
  <Boundary>
    <bc name="FixXs" type="zero displacement" node_set="FixXs">
      <x_dof>1</x_dof>
      <y_dof>0</y_dof>
      <z_dof>0</z_dof>
    </bc>
    <bc name="FixYs" type="zero displacement" node_set="FixYs">
      <x_dof>0</x_dof>
      <y_dof>1</y_dof>
      <z_dof>0</z_dof>
    </bc>
    <bc name="FixZs" type="zero displacement" node_set="@surface:FixZs">
      <x_dof>0</x_dof>
      <y_dof>0</y_dof>
      <z_dof>1</z_dof>
    </bc>
  </Boundary>
  <Loads>
    <surface_load type="pressure" surface="PressureLoad1">
      <pressure lc="1">13.9868</pressure>
      <linear>0</linear>
      <symmetric_stiffness>0</symmetric_stiffness>
    </surface_load>
  </Loads>
  <LoadData>
    <load_controller id="1" type="loadcurve">
      <interpolate>LINEAR</interpolate>
      <points>
        <point>0,1.0</point>
        <point>1,1.0</point>
        <point>2,1.0</point>
      </points>
    </load_controller>
    <load_controller id="2" type="math">
      <math>1.0 - exp(-(t * 0.5 * VVV))</math>
    </load_controller>
  </LoadData>
  <Output>
    <plotfile type="vtk">
      <var type="displacement" />
      <var type="relative volume" />
      <var type="stress" />
      <var type="SPR stress" />
      <var type="SPR principal stress" />
      <var type="deformation gradient" />
      <var type="strain energy density" />
      <var type="acceleration" />
      <var type="velocity" />
    </plotfile>
  </Output>
</febio_spec>