<?xml version="1.0" encoding="ISO-8859-1"?>
<febio_spec version="3.0">
    <Module type="solid"/>
	<Control>
		<analysis>STATIC</analysis>
		<time_steps>720</time_steps>
		<step_size>1</step_size>
		<solver>
			<diverge_reform>1</diverge_reform>
			<reform_each_time_step>1</reform_each_time_step>
	        <dtol>0</dtol>
	        <etol>1e-16</etol>
	        <rtol>1e-16</rtol>
			<lstol>0.0</lstol>
			<min_residual>1e-16</min_residual>
            <qn_method type="Broyden"/>
                <max_refs>1000</max_refs>
                <max_ups>0</max_ups>
            <symmetric_stiffness>0</symmetric_stiffness>
		</solver>
	</Control>
    <Globals>
        <Constants>
            <T>0</T>
            <R>0</R>
            <Fc>0</Fc>
        </Constants>
    </Globals>
    <Material>
        <material id="1" name="Material1" type="FSG">
            <density>1</density>
		 	<k>100000.0</k>
		 	<a_val lc="2" type="math"> 0.1 + (1.0 - 0.1) * exp(-abs((Z - 0.0) / 0.3) ^ 2.0) * exp(-abs(atan2(Y,X) / pi) ^ 2.0)</a_val>
        </material>
    </Material>

<Geometry>
	<Nodes name="Object01">
		<node id="1">0.6468, 0.0, -7.5</node>
		<node id="2">0.6669, 0.0, -7.5</node>
		<node id="3">0.687, 0.0, -7.5</node>
		<node id="4">0.6309716773698527, 0.09993609598085801, -7.5</node>
		<node id="5">0.650579795358619, 0.10304171677432623, -7.5</node>
		<node id="6">0.6701879133473854, 0.10614733756779446, -7.5</node>
		<node id="7">0.6151433547397054, 0.19987219196171602, -7.5</node>
		<node id="8">0.634259590717238, 0.20608343354865247, -7.5</node>
		<node id="9">0.6533758266947706, 0.21229467513558892, -7.5</node>
		<node id="10">0.5692077733507108, 0.2900258465722438, -7.5</node>
		<node id="11">0.5868965121329452, 0.29903870915125136, -7.5</node>
		<node id="12">0.6045852509151798, 0.308051571730259, -7.5</node>
		<node id="13">0.5232721919617161, 0.38017950118277155, -7.5</node>
		<node id="14">0.5395334335486526, 0.3919939847538503, -7.5</node>
		<node id="15">0.555794675135589, 0.403808468324929, -7.5</node>
		<node id="16">0.4517258465722439, 0.4517258465722438, -7.5</node>
		<node id="17">0.4657637091512515, 0.46576370915125137, -7.5</node>
		<node id="18">0.47980157173025906, 0.47980157173025895, -7.5</node>
		<node id="19">0.38017950118277166, 0.523272191961716, -7.5</node>
		<node id="20">0.3919939847538504, 0.5395334335486525, -7.5</node>
<!-- ... 5023 like lines cut -->
	</Nodes>
	<Elements type="hex27" mat="1" name="Part1">
		<elem id="1">1, 7, 253, 247, 3, 9, 255, 249, 4, 130, 250, 124, 6, 132, 252, 126, 2, 8, 254, 248, 5, 131, 251, 125, 127, 129, 128</elem>
		<elem id="2">7, 13, 259, 253, 9, 15, 261, 255, 10, 136, 256, 130, 12, 138, 258, 132, 8, 14, 260, 254, 11, 137, 257, 131, 133, 135, 134</elem>
		<elem id="3">13, 19, 265, 259, 15, 21, 267, 261, 16, 142, 262, 136, 18, 144, 264, 138, 14, 20, 266, 260, 17, 143, 263, 137, 139, 141, 140</elem>
		<elem id="4">19, 25, 271, 265, 21, 27, 273, 267, 22, 148, 268, 142, 24, 150, 270, 144, 20, 26, 272, 266, 23, 149, 269, 143, 145, 147, 146</elem>
		<elem id="5">25, 31, 277, 271, 27, 33, 279, 273, 28, 154, 274, 148, 30, 156, 276, 150, 26, 32, 278, 272, 29, 155, 275, 149, 151, 153, 152</elem>
		<elem id="6">31, 37, 283, 277, 33, 39, 285, 279, 34, 160, 280, 154, 36, 162, 282, 156, 32, 38, 284, 278, 35, 161, 281, 155, 157, 159, 158</elem>
		<elem id="7">37, 43, 289, 283, 39, 45, 291, 285, 40, 166, 286, 160, 42, 168, 288, 162, 38, 44, 290, 284, 41, 167, 287, 161, 163, 165, 164</elem>
		<elem id="8">43, 49, 295, 289, 45, 51, 297, 291, 46, 172, 292, 166, 48, 174, 294, 168, 44, 50, 296, 290, 47, 173, 293, 167, 169, 171, 170</elem>
		<elem id="9">49, 55, 301, 295, 51, 57, 303, 297, 52, 178, 298, 172, 54, 180, 300, 174, 50, 56, 302, 296, 53, 179, 299, 173, 175, 177, 176</elem>
		<elem id="10">55, 61, 307, 301, 57, 63, 309, 303, 58, 184, 304, 178, 60, 186, 306, 180, 56, 62, 308, 302, 59, 185, 305, 179, 181, 183, 182</elem>
		<elem id="11">61, 67, 313, 307, 63, 69, 315, 309, 64, 190, 310, 184, 66, 192, 312, 186, 62, 68, 314, 308, 65, 191, 311, 185, 187, 189, 188</elem>
		<elem id="12">67, 73, 319, 313, 69, 75, 321, 315, 70, 196, 316, 190, 72, 198, 318, 192, 68, 74, 320, 314, 71, 197, 317, 191, 193, 195, 194</elem>
		<elem id="13">73, 79, 325, 319, 75, 81, 327, 321, 76, 202, 322, 196, 78, 204, 324, 198, 74, 80, 326, 320, 77, 203, 323, 197, 199, 201, 200</elem>
		<elem id="14">79, 85, 331, 325, 81, 87, 333, 327, 82, 208, 328, 202, 84, 210, 330, 204, 80, 86, 332, 326, 83, 209, 329, 203, 205, 207, 206</elem>
		<elem id="15">85, 91, 337, 331, 87, 93, 339, 333, 88, 214, 334, 208, 90, 216, 336, 210, 86, 92, 338, 332, 89, 215, 335, 209, 211, 213, 212</elem>
		<elem id="16">91, 97, 343, 337, 93, 99, 345, 339, 94, 220, 340, 214, 96, 222, 342, 216, 92, 98, 344, 338, 95, 221, 341, 215, 217, 219, 218</elem>
		<elem id="17">97, 103, 349, 343, 99, 105, 351, 345, 100, 226, 346, 220, 102, 228, 348, 222, 98, 104, 350, 344, 101, 227, 347, 221, 223, 225, 224</elem>
		<elem id="18">103, 109, 355, 349, 105, 111, 357, 351, 106, 232, 352, 226, 108, 234, 354, 228, 104, 110, 356, 350, 107, 233, 353, 227, 229, 231, 230</elem>
		<elem id="19">109, 115, 361, 355, 111, 117, 363, 357, 112, 238, 358, 232, 114, 240, 360, 234, 110, 116, 362, 356, 113, 239, 359, 233, 235, 237, 236</elem>
		<elem id="20">115, 1, 247, 361, 117, 3, 249, 363, 118, 124, 364, 238, 120, 126, 366, 240, 116, 2, 248, 362, 119, 125, 365, 239, 241, 243, 242</elem>
<!-- ... 380 like lines cut -->
	</Elements>
	<NodeSet name="FixXs">
		<node id="31"/>
		<node id="91"/>
		<node id="4951"/>
		<node id="5011"/>
	</NodeSet>
	<NodeSet name="FixYs">
		<node id="1"/>
		<node id="61"/>
		<node id="4921"/>
		<node id="4981"/>
	</NodeSet>
	<Surface name="FixZs">
		<quad9 id="1">1, 3, 9, 7, 2, 6, 8, 4, 5</quad9>
		<quad9 id="2">7, 9, 15, 13, 8, 12, 14, 10, 11</quad9>
		<quad9 id="3">13, 15, 21, 19, 14, 18, 20, 16, 17</quad9>
		<quad9 id="4">19, 21, 27, 25, 20, 24, 26, 22, 23</quad9>
		<quad9 id="5">25, 27, 33, 31, 26, 30, 32, 28, 29</quad9>
		<quad9 id="6">31, 33, 39, 37, 32, 36, 38, 34, 35</quad9>
		<quad9 id="7">37, 39, 45, 43, 38, 42, 44, 40, 41</quad9>
		<quad9 id="8">43, 45, 51, 49, 44, 48, 50, 46, 47</quad9>
		<quad9 id="9">49, 51, 57, 55, 50, 54, 56, 52, 53</quad9>
		<quad9 id="10">55, 57, 63, 61, 56, 60, 62, 58, 59</quad9>
		<quad9 id="11">61, 63, 69, 67, 62, 66, 68, 64, 65</quad9>
		<quad9 id="12">67, 69, 75, 73, 68, 72, 74, 70, 71</quad9>
		<quad9 id="13">73, 75, 81, 79, 74, 78, 80, 76, 77</quad9>
		<quad9 id="14">79, 81, 87, 85, 80, 84, 86, 82, 83</quad9>
		<quad9 id="15">85, 87, 93, 91, 86, 90, 92, 88, 89</quad9>
		<quad9 id="16">91, 93, 99, 97, 92, 96, 98, 94, 95</quad9>
		<quad9 id="17">97, 99, 105, 103, 98, 102, 104, 100, 101</quad9>
		<quad9 id="18">103, 105, 111, 109, 104, 108, 110, 106, 107</quad9>
		<quad9 id="19">109, 111, 117, 115, 110, 114, 116, 112, 113</quad9>
		<quad9 id="20">115, 117, 3, 1, 116, 120, 2, 118, 119</quad9>
<!-- ... 20 like lines cut -->
	</Surface>
	<Surface name="PressureLoad1">
		<quad9 id="1">1, 247, 253, 7, 124, 250, 130, 4, 127</quad9>
		<quad9 id="2">7, 253, 259, 13, 130, 256, 136, 10, 133</quad9>
		<quad9 id="3">13, 259, 265, 19, 136, 262, 142, 16, 139</quad9>
		<quad9 id="4">19, 265, 271, 25, 142, 268, 148, 22, 145</quad9>
		<quad9 id="5">25, 271, 277, 31, 148, 274, 154, 28, 151</quad9>
		<quad9 id="6">31, 277, 283, 37, 154, 280, 160, 34, 157</quad9>
		<quad9 id="7">37, 283, 289, 43, 160, 286, 166, 40, 163</quad9>
		<quad9 id="8">43, 289, 295, 49, 166, 292, 172, 46, 169</quad9>
		<quad9 id="9">49, 295, 301, 55, 172, 298, 178, 52, 175</quad9>
		<quad9 id="10">55, 301, 307, 61, 178, 304, 184, 58, 181</quad9>
		<quad9 id="11">61, 307, 313, 67, 184, 310, 190, 64, 187</quad9>
		<quad9 id="12">67, 313, 319, 73, 190, 316, 196, 70, 193</quad9>
		<quad9 id="13">73, 319, 325, 79, 196, 322, 202, 76, 199</quad9>
		<quad9 id="14">79, 325, 331, 85, 202, 328, 208, 82, 205</quad9>
		<quad9 id="15">85, 331, 337, 91, 208, 334, 214, 88, 211</quad9>
		<quad9 id="16">91, 337, 343, 97, 214, 340, 220, 94, 217</quad9>
		<quad9 id="17">97, 343, 349, 103, 220, 346, 226, 100, 223</quad9>
		<quad9 id="18">103, 349, 355, 109, 226, 352, 232, 106, 229</quad9>
		<quad9 id="19">109, 355, 361, 115, 232, 358, 238, 112, 235</quad9>
		<quad9 id="20">115, 361, 247, 1, 238, 364, 124, 118, 241</quad9>
<!-- ... 380 like lines cut -->
	</Surface>
</Geometry>


	<Boundary>
		<bc name="FixYs" type="fix" node_set="FixYs">
			<dofs>y</dofs>
		</bc>
		<bc name="FixZs" type="fix" node_set="@surface:FixZs">
			<dofs>z</dofs>
		</bc>
	</Boundary>
	<MeshData>

	<ElementData var="mat_axis" elem_set="Part1">
		<elem lid="1">
			<a>0.9876883405951377, 0.15643446504023087, 0</a>
			<d>-0.15643446504023087, 0.9876883405951377, 0</d>
		</elem>
		<elem lid="2">
			<a>0.8910065241883677, 0.45399049973954675, 0</a>
			<d>-0.45399049973954675, 0.8910065241883677, 0</d>
		</elem>
		<elem lid="3">
			<a>0.7071067811865477, 0.7071067811865476, 0</a>
			<d>-0.7071067811865476, 0.7071067811865477, 0</d>
		</elem>
		<elem lid="4">
			<a>0.4539904997395468, 0.8910065241883677, 0</a>
			<d>-0.8910065241883677, 0.4539904997395468, 0</d>
		</elem>
		<elem lid="5">
			<a>0.15643446504023092, 0.9876883405951377, 0</a>
			<d>-0.9876883405951377, 0.15643446504023092, 0</d>
		</elem>
		<elem lid="6">
			<a>-0.1564344650402306, 0.9876883405951378, 0</a>
			<d>-0.9876883405951378, -0.1564344650402306, 0</d>
		</elem>
		<elem lid="7">
			<a>-0.4539904997395467, 0.8910065241883678, 0</a>
			<d>-0.8910065241883678, -0.4539904997395467, 0</d>
		</elem>
		<elem lid="8">
			<a>-0.7071067811865475, 0.7071067811865477, 0</a>
			<d>-0.7071067811865477, -0.7071067811865475, 0</d>
		</elem>
		<elem lid="9">
			<a>-0.8910065241883677, 0.45399049973954686, 0</a>
			<d>-0.45399049973954686, -0.8910065241883677, 0</d>
		</elem>
		<elem lid="10">
			<a>-0.9876883405951377, 0.15643446504023098, 0</a>
			<d>-0.15643446504023098, -0.9876883405951377, 0</d>
		</elem>
		<elem lid="11">
			<a>-0.9876883405951377, -0.15643446504023076, 0</a>
			<d>0.15643446504023076, -0.9876883405951377, 0</d>
		</elem>
		<elem lid="12">
			<a>-0.8910065241883678, -0.45399049973954664, 0</a>
			<d>0.45399049973954664, -0.8910065241883678, 0</d>
		</elem>
		<elem lid="13">
			<a>-0.7071067811865477, -0.7071067811865475, 0</a>
			<d>0.7071067811865475, -0.7071067811865477, 0</d>
		</elem>
		<elem lid="14">
			<a>-0.4539904997395469, -0.8910065241883676, 0</a>
			<d>0.8910065241883676, -0.4539904997395469, 0</d>
		</elem>
		<elem lid="15">
			<a>-0.15643446504023106, -0.9876883405951375, 0</a>
			<d>0.9876883405951375, -0.15643446504023106, 0</d>
		</elem>
		<elem lid="16">
			<a>0.15643446504023067, -0.9876883405951377, 0</a>
			<d>0.9876883405951377, 0.15643446504023067, 0</d>
		</elem>
		<elem lid="17">
			<a>0.4539904997395466, -0.8910065241883678, 0</a>
			<d>0.8910065241883678, 0.4539904997395466, 0</d>
		</elem>
		<elem lid="18">
			<a>0.7071067811865474, -0.7071067811865477, 0</a>
			<d>0.7071067811865477, 0.7071067811865474, 0</d>
		</elem>
		<elem lid="19">
			<a>0.8910065241883676, -0.45399049973954697, 0</a>
			<d>0.45399049973954697, 0.8910065241883676, 0</d>
		</elem>
		<elem lid="20">
			<a>0.9876883405951375, -0.15643446504023112, 0</a>
			<d>0.15643446504023112, 0.9876883405951375, 0</d>
		</elem>
		<elem lid="21">
			<a>0.9876883405951377, 0.15643446504023087, 0</a>
			<d>-0.15643446504023087, 0.9876883405951377, 0</d>
		</elem>
		<elem lid="22">
			<a>0.8910065241883677, 0.45399049973954675, 0</a>
			<d>-0.45399049973954675, 0.8910065241883677, 0</d>
		</elem>
		<elem lid="23">
			<a>0.7071067811865477, 0.7071067811865476, 0</a>
			<d>-0.7071067811865476, 0.7071067811865477, 0</d>
		</elem>
		<elem lid="24">
			<a>0.4539904997395468, 0.8910065241883677, 0</a>
			<d>-0.8910065241883677, 0.4539904997395468, 0</d>
		</elem>
		<elem lid="25">
			<a>0.15643446504023092, 0.9876883405951377, 0</a>
			<d>-0.9876883405951377, 0.15643446504023092, 0</d>
		</elem>
		<elem lid="26">
			<a>-0.1564344650402306, 0.9876883405951378, 0</a>
			<d>-0.9876883405951378, -0.1564344650402306, 0</d>
		</elem>
		<elem lid="27">
			<a>-0.4539904997395467, 0.8910065241883678, 0</a>
			<d>-0.8910065241883678, -0.4539904997395467, 0</d>
		</elem>
		<elem lid="28">
			<a>-0.7071067811865475, 0.7071067811865477, 0</a>
			<d>-0.7071067811865477, -0.7071067811865475, 0</d>
		</elem>
		<elem lid="29">
			<a>-0.8910065241883677, 0.45399049973954686, 0</a>
			<d>-0.45399049973954686, -0.8910065241883677, 0</d>
		</elem>
		<elem lid="30">
			<a>-0.9876883405951377, 0.15643446504023098, 0</a>
			<d>-0.15643446504023098, -0.9876883405951377, 0</d>
		</elem>
		<elem lid="31">
			<a>-0.9876883405951377, -0.15643446504023076, 0</a>
			<d>0.15643446504023076, -0.9876883405951377, 0</d>
		</elem>
		<elem lid="32">
			<a>-0.8910065241883678, -0.45399049973954664, 0</a>
			<d>0.45399049973954664, -0.8910065241883678, 0</d>
		</elem>
		<elem lid="33">
			<a>-0.7071067811865477, -0.7071067811865475, 0</a>
			<d>0.7071067811865475, -0.7071067811865477, 0</d>
		</elem>
		<elem lid="34">
			<a>-0.4539904997395469, -0.8910065241883676, 0</a>
			<d>0.8910065241883676, -0.4539904997395469, 0</d>
		</elem>
		<elem lid="35">
			<a>-0.15643446504023106, -0.9876883405951375, 0</a>
			<d>0.9876883405951375, -0.15643446504023106, 0</d>
		</elem>
		<elem lid="36">
			<a>0.15643446504023067, -0.9876883405951377, 0</a>
			<d>0.9876883405951377, 0.15643446504023067, 0</d>
		</elem>
		<elem lid="37">
			<a>0.4539904997395466, -0.8910065241883678, 0</a>
			<d>0.8910065241883678, 0.4539904997395466, 0</d>
		</elem>
		<elem lid="38">
			<a>0.7071067811865474, -0.7071067811865477, 0</a>
			<d>0.7071067811865477, 0.7071067811865474, 0</d>
		</elem>
		<elem lid="39">
			<a>0.8910065241883676, -0.45399049973954697, 0</a>
			<d>0.45399049973954697, 0.8910065241883676, 0</d>
		</elem>
		<elem lid="40">
			<a>0.9876883405951375, -0.15643446504023112, 0</a>
			<d>0.15643446504023112, 0.9876883405951375, 0</d>
		</elem>
		<elem lid="41">
			<a>0.9876883405951377, 0.15643446504023087, 0</a>
			<d>-0.15643446504023087, 0.9876883405951377, 0</d>
		</elem>
		<elem lid="42">
			<a>0.8910065241883677, 0.45399049973954675, 0</a>
			<d>-0.45399049973954675, 0.8910065241883677, 0</d>
		</elem>
		<elem lid="43">
			<a>0.7071067811865477, 0.7071067811865476, 0</a>
			<d>-0.7071067811865476, 0.7071067811865477, 0</d>
		</elem>
		<elem lid="44">
			<a>0.4539904997395468, 0.8910065241883677, 0</a>
			<d>-0.8910065241883677, 0.4539904997395468, 0</d>
		</elem>
		<elem lid="45">
			<a>0.15643446504023092, 0.9876883405951377, 0</a>
			<d>-0.9876883405951377, 0.15643446504023092, 0</d>
		</elem>
		<elem lid="46">
			<a>-0.1564344650402306, 0.9876883405951378, 0</a>
			<d>-0.9876883405951378, -0.1564344650402306, 0</d>
		</elem>
		<elem lid="47">
			<a>-0.4539904997395467, 0.8910065241883678, 0</a>
			<d>-0.8910065241883678, -0.4539904997395467, 0</d>
		</elem>
		<elem lid="48">
			<a>-0.7071067811865475, 0.7071067811865477, 0</a>
			<d>-0.7071067811865477, -0.7071067811865475, 0</d>
		</elem>
		<elem lid="49">
			<a>-0.8910065241883677, 0.45399049973954686, 0</a>
			<d>-0.45399049973954686, -0.8910065241883677, 0</d>
		</elem>
		<elem lid="50">
			<a>-0.9876883405951377, 0.15643446504023098, 0</a>
			<d>-0.15643446504023098, -0.9876883405951377, 0</d>
		</elem>
		<elem lid="51">
			<a>-0.9876883405951377, -0.15643446504023076, 0</a>
			<d>0.15643446504023076, -0.9876883405951377, 0</d>
		</elem>
		<elem lid="52">
			<a>-0.8910065241883678, -0.45399049973954664, 0</a>
			<d>0.45399049973954664, -0.8910065241883678, 0</d>
		</elem>
		<elem lid="53">
			<a>-0.7071067811865477, -0.7071067811865475, 0</a>
			<d>0.7071067811865475, -0.7071067811865477, 0</d>
		</elem>
		<elem lid="54">
			<a>-0.4539904997395469, -0.8910065241883676, 0</a>
			<d>0.8910065241883676, -0.4539904997395469, 0</d>
		</elem>
		<elem lid="55">
			<a>-0.15643446504023106, -0.9876883405951375, 0</a>
			<d>0.9876883405951375, -0.15643446504023106, 0</d>
		</elem>
		<elem lid="56">
			<a>0.15643446504023067, -0.9876883405951377, 0</a>
			<d>0.9876883405951377, 0.15643446504023067, 0</d>
		</elem>
		<elem lid="57">
			<a>0.4539904997395466, -0.8910065241883678, 0</a>
			<d>0.8910065241883678, 0.4539904997395466, 0</d>
		</elem>
		<elem lid="58">
			<a>0.7071067811865474, -0.7071067811865477, 0</a>
			<d>0.7071067811865477, 0.7071067811865474, 0</d>
		</elem>
		<elem lid="59">
			<a>0.8910065241883676, -0.45399049973954697, 0</a>
			<d>0.45399049973954697, 0.8910065241883676, 0</d>
		</elem>
		<elem lid="60">
			<a>0.9876883405951375, -0.15643446504023112, 0</a>
			<d>0.15643446504023112, 0.9876883405951375, 0</d>
		</elem>
		<elem lid="61">
			<a>0.9876883405951377, 0.15643446504023087, 0</a>
			<d>-0.15643446504023087, 0.9876883405951377, 0</d>
		</elem>
		<elem lid="62">
			<a>0.8910065241883677, 0.45399049973954675, 0</a>
			<d>-0.45399049973954675, 0.8910065241883677, 0</d>
		</elem>
		<elem lid="63">
			<a>0.7071067811865477, 0.7071067811865476, 0</a>
			<d>-0.7071067811865476, 0.7071067811865477, 0</d>
		</elem>
		<elem lid="64">
			<a>0.4539904997395468, 0.8910065241883677, 0</a>
			<d>-0.8910065241883677, 0.4539904997395468, 0</d>
		</elem>
		<elem lid="65">
			<a>0.15643446504023092, 0.9876883405951377, 0</a>
			<d>-0.9876883405951377, 0.15643446504023092, 0</d>
		</elem>
		<elem lid="66">
			<a>-0.1564344650402306, 0.9876883405951378, 0</a>
			<d>-0.9876883405951378, -0.1564344650402306, 0</d>
		</elem>
		<elem lid="67">
			<a>-0.4539904997395467, 0.8910065241883678, 0</a>
			<d>-0.8910065241883678, -0.4539904997395467, 0</d>
		</elem>
		<elem lid="68">
			<a>-0.7071067811865475, 0.7071067811865477, 0</a>
			<d>-0.7071067811865477, -0.7071067811865475, 0</d>
		</elem>
		<elem lid="69">
			<a>-0.8910065241883677, 0.45399049973954686, 0</a>
			<d>-0.45399049973954686, -0.8910065241883677, 0</d>
		</elem>
		<elem lid="70">
			<a>-0.9876883405951377, 0.15643446504023098, 0</a>
			<d>-0.15643446504023098, -0.9876883405951377, 0</d>
		</elem>
		<elem lid="71">
			<a>-0.9876883405951377, -0.15643446504023076, 0</a>
			<d>0.15643446504023076, -0.9876883405951377, 0</d>
		</elem>
		<elem lid="72">
			<a>-0.8910065241883678, -0.45399049973954664, 0</a>
			<d>0.45399049973954664, -0.8910065241883678, 0</d>
		</elem>
		<elem lid="73">
			<a>-0.7071067811865477, -0.7071067811865475, 0</a>
			<d>0.7071067811865475, -0.7071067811865477, 0</d>
		</elem>
		<elem lid="74">
			<a>-0.4539904997395469, -0.8910065241883676, 0</a>
			<d>0.8910065241883676, -0.4539904997395469, 0</d>
		</elem>
		<elem lid="75">
			<a>-0.15643446504023106, -0.9876883405951375, 0</a>
			<d>0.9876883405951375, -0.15643446504023106, 0</d>
		</elem>
		<elem lid="76">
			<a>0.15643446504023067, -0.9876883405951377, 0</a>
			<d>0.9876883405951377, 0.15643446504023067, 0</d>
		</elem>
		<elem lid="77">
			<a>0.4539904997395466, -0.8910065241883678, 0</a>
			<d>0.8910065241883678, 0.4539904997395466, 0</d>
		</elem>
		<elem lid="78">
			<a>0.7071067811865474, -0.7071067811865477, 0</a>
			<d>0.7071067811865477, 0.7071067811865474, 0</d>
		</elem>
		<elem lid="79">
			<a>0.8910065241883676, -0.45399049973954697, 0</a>
			<d>0.45399049973954697, 0.8910065241883676, 0</d>
		</elem>
		<elem lid="80">
			<a>0.9876883405951375, -0.15643446504023112, 0</a>
			<d>0.15643446504023112, 0.9876883405951375, 0</d>
		</elem>
		<elem lid="81">
			<a>0.9876883405951377, 0.15643446504023087, 0</a>
			<d>-0.15643446504023087, 0.9876883405951377, 0</d>
		</elem>
		<elem lid="82">
			<a>0.8910065241883677, 0.45399049973954675, 0</a>
			<d>-0.45399049973954675, 0.8910065241883677, 0</d>
		</elem>
		<elem lid="83">
			<a>0.7071067811865477, 0.7071067811865476, 0</a>
			<d>-0.7071067811865476, 0.7071067811865477, 0</d>
		</elem>
		<elem lid="84">
			<a>0.4539904997395468, 0.8910065241883677, 0</a>
			<d>-0.8910065241883677, 0.4539904997395468, 0</d>
		</elem>
		<elem lid="85">
			<a>0.15643446504023092, 0.9876883405951377, 0</a>
			<d>-0.9876883405951377, 0.15643446504023092, 0</d>
		</elem>
		<elem lid="86">
			<a>-0.1564344650402306, 0.9876883405951378, 0</a>
			<d>-0.9876883405951378, -0.1564344650402306, 0</d>
		</elem>
		<elem lid="87">
			<a>-0.4539904997395467, 0.8910065241883678, 0</a>
			<d>-0.8910065241883678, -0.4539904997395467, 0</d>
		</elem>
		<elem lid="88">
			<a>-0.7071067811865475, 0.7071067811865477, 0</a>
			<d>-0.7071067811865477, -0.7071067811865475, 0</d>
		</elem>
		<elem lid="89">
			<a>-0.8910065241883677, 0.45399049973954686, 0</a>
			<d>-0.45399049973954686, -0.8910065241883677, 0</d>
		</elem>
		<elem lid="90">
			<a>-0.9876883405951377, 0.15643446504023098, 0</a>
			<d>-0.15643446504023098, -0.9876883405951377, 0</d>
		</elem>
		<elem lid="91">
			<a>-0.9876883405951377, -0.15643446504023076, 0</a>
			<d>0.15643446504023076, -0.9876883405951377, 0</d>
		</elem>
		<elem lid="92">
			<a>-0.8910065241883678, -0.45399049973954664, 0</a>
			<d>0.45399049973954664, -0.8910065241883678, 0</d>
		</elem>
		<elem lid="93">
			<a>-0.7071067811865477, -0.7071067811865475, 0</a>
			<d>0.7071067811865475, -0.7071067811865477, 0</d>
		</elem>
		<elem lid="94">
			<a>-0.4539904997395469, -0.8910065241883676, 0</a>
			<d>0.8910065241883676, -0.4539904997395469, 0</d>
		</elem>
		<elem lid="95">
			<a>-0.15643446504023106, -0.9876883405951375, 0</a>
			<d>0.9876883405951375, -0.15643446504023106, 0</d>
		</elem>
		<elem lid="96">
			<a>0.15643446504023067, -0.9876883405951377, 0</a>
			<d>0.9876883405951377, 0.15643446504023067, 0</d>
		</elem>
		<elem lid="97">
			<a>0.4539904997395466, -0.8910065241883678, 0</a>
			<d>0.8910065241883678, 0.4539904997395466, 0</d>
		</elem>
		<elem lid="98">
			<a>0.7071067811865474, -0.7071067811865477, 0</a>
			<d>0.7071067811865477, 0.7071067811865474, 0</d>
		</elem>
		<elem lid="99">
			<a>0.8910065241883676, -0.45399049973954697, 0</a>
			<d>0.45399049973954697, 0.8910065241883676, 0</d>
		</elem>
		<elem lid="100">
			<a>0.9876883405951375, -0.15643446504023112, 0</a>
			<d>0.15643446504023112, 0.9876883405951375, 0</d>
		</elem>
		<elem lid="101">
			<a>0.9876883405951377, 0.15643446504023087, 0</a>
			<d>-0.15643446504023087, 0.9876883405951377, 0</d>
		</elem>
		<elem lid="102">
			<a>0.8910065241883677, 0.45399049973954675, 0</a>
			<d>-0.45399049973954675, 0.8910065241883677, 0</d>
		</elem>
		<elem lid="103">
			<a>0.7071067811865477, 0.7071067811865476, 0</a>
			<d>-0.7071067811865476, 0.7071067811865477, 0</d>
		</elem>
		<elem lid="104">
			<a>0.4539904997395468, 0.8910065241883677, 0</a>
			<d>-0.8910065241883677, 0.4539904997395468, 0</d>
		</elem>
		<elem lid="105">
			<a>0.15643446504023092, 0.9876883405951377, 0</a>
			<d>-0.9876883405951377, 0.15643446504023092, 0</d>
		</elem>
		<elem lid="106">
			<a>-0.1564344650402306, 0.9876883405951378, 0</a>
			<d>-0.9876883405951378, -0.1564344650402306, 0</d>
		</elem>
		<elem lid="107">
			<a>-0.4539904997395467, 0.8910065241883678, 0</a>
			<d>-0.8910065241883678, -0.4539904997395467, 0</d>
		</elem>
		<elem lid="108">
			<a>-0.7071067811865475, 0.7071067811865477, 0</a>
			<d>-0.7071067811865477, -0.7071067811865475, 0</d>
		</elem>
		<elem lid="109">
			<a>-0.8910065241883677, 0.45399049973954686, 0</a>
			<d>-0.45399049973954686, -0.8910065241883677, 0</d>
		</elem>
		<elem lid="110">
			<a>-0.9876883405951377, 0.15643446504023098, 0</a>
			<d>-0.15643446504023098, -0.9876883405951377, 0</d>
		</elem>
		<elem lid="111">
			<a>-0.9876883405951377, -0.15643446504023076, 0</a>
			<d>0.15643446504023076, -0.9876883405951377, 0</d>
		</elem>
		<elem lid="112">
			<a>-0.8910065241883678, -0.45399049973954664, 0</a>
			<d>0.45399049973954664, -0.8910065241883678, 0</d>
		</elem>
		<elem lid="113">
			<a>-0.7071067811865477, -0.7071067811865475, 0</a>
			<d>0.7071067811865475, -0.7071067811865477, 0</d>
		</elem>
		<elem lid="114">
			<a>-0.4539904997395469, -0.8910065241883676, 0</a>
			<d>0.8910065241883676, -0.4539904997395469, 0</d>
		</elem>
		<elem lid="115">
			<a>-0.15643446504023106, -0.9876883405951375, 0</a>
			<d>0.9876883405951375, -0.15643446504023106, 0</d>
		</elem>
		<elem lid="116">
			<a>0.15643446504023067, -0.9876883405951377, 0</a>
			<d>0.9876883405951377, 0.15643446504023067, 0</d>
		</elem>
		<elem lid="117">
			<a>0.4539904997395466, -0.8910065241883678, 0</a>
			<d>0.8910065241883678, 0.4539904997395466, 0</d>
		</elem>
		<elem lid="118">
			<a>0.7071067811865474, -0.7071067811865477, 0</a>
			<d>0.7071067811865477, 0.7071067811865474, 0</d>
		</elem>
		<elem lid="119">
			<a>0.8910065241883676, -0.45399049973954697, 0</a>
			<d>0.45399049973954697, 0.8910065241883676, 0</d>
		</elem>
		<elem lid="120">
			<a>0.9876883405951375, -0.15643446504023112, 0</a>
			<d>0.15643446504023112, 0.9876883405951375, 0</d>
		</elem>
		<elem lid="121">
			<a>0.9876883405951377, 0.15643446504023087, 0</a>
			<d>-0.15643446504023087, 0.9876883405951377, 0</d>
		</elem>
		<elem lid="122">
			<a>0.8910065241883677, 0.45399049973954675, 0</a>
			<d>-0.45399049973954675, 0.8910065241883677, 0</d>
		</elem>
		<elem lid="123">
			<a>0.7071067811865477, 0.7071067811865476, 0</a>
			<d>-0.7071067811865476, 0.7071067811865477, 0</d>
		</elem>
		<elem lid="124">
			<a>0.4539904997395468, 0.8910065241883677, 0</a>
			<d>-0.8910065241883677, 0.4539904997395468, 0</d>
		</elem>
		<elem lid="125">
			<a>0.15643446504023092, 0.9876883405951377, 0</a>
			<d>-0.9876883405951377, 0.15643446504023092, 0</d>
		</elem>
		<elem lid="126">
			<a>-0.1564344650402306, 0.9876883405951378, 0</a>
			<d>-0.9876883405951378, -0.1564344650402306, 0</d>
		</elem>
		<elem lid="127">
			<a>-0.4539904997395467, 0.8910065241883678, 0</a>
			<d>-0.8910065241883678, -0.4539904997395467, 0</d>
		</elem>
		<elem lid="128">
			<a>-0.7071067811865475, 0.7071067811865477, 0</a>
			<d>-0.7071067811865477, -0.7071067811865475, 0</d>
		</elem>
		<elem lid="129">
			<a>-0.8910065241883677, 0.45399049973954686, 0</a>
			<d>-0.45399049973954686, -0.8910065241883677, 0</d>
		</elem>
		<elem lid="130">
			<a>-0.9876883405951377, 0.15643446504023098, 0</a>
			<d>-0.15643446504023098, -0.9876883405951377, 0</d>
		</elem>
		<elem lid="131">
			<a>-0.9876883405951377, -0.15643446504023076, 0</a>
			<d>0.15643446504023076, -0.9876883405951377, 0</d>
		</elem>
		<elem lid="132">
			<a>-0.8910065241883678, -0.45399049973954664, 0</a>
			<d>0.45399049973954664, -0.8910065241883678, 0</d>
		</elem>
		<elem lid="133">
			<a>-0.7071067811865477, -0.7071067811865475, 0</a>
			<d>0.7071067811865475, -0.7071067811865477, 0</d>
		</elem>
		<elem lid="134">
			<a>-0.4539904997395469, -0.8910065241883676, 0</a>
			<d>0.8910065241883676, -0.4539904997395469, 0</d>
		</elem>
		<elem lid="135">
			<a>-0.15643446504023106, -0.9876883405951375, 0</a>
			<d>0.9876883405951375, -0.15643446504023106, 0</d>
		</elem>
		<elem lid="136">
			<a>0.15643446504023067, -0.9876883405951377, 0</a>
			<d>0.9876883405951377, 0.15643446504023067, 0</d>
		</elem>
		<elem lid="137">
			<a>0.4539904997395466, -0.8910065241883678, 0</a>
			<d>0.8910065241883678, 0.4539904997395466, 0</d>
		</elem>
		<elem lid="138">
			<a>0.7071067811865474, -0.7071067811865477, 0</a>
			<d>0.7071067811865477, 0.7071067811865474, 0</d>
		</elem>
		<elem lid="139">
			<a>0.8910065241883676, -0.45399049973954697, 0</a>
			<d>0.45399049973954697, 0.8910065241883676, 0</d>
		</elem>
		<elem lid="140">
			<a>0.9876883405951375, -0.15643446504023112, 0</a>
			<d>0.15643446504023112, 0.9876883405951375, 0</d>
		</elem>
		<elem lid="141">
			<a>0.9876883405951377, 0.15643446504023087, 0</a>
			<d>-0.15643446504023087, 0.9876883405951377, 0</d>
		</elem>
		<elem lid="142">
			<a>0.8910065241883677, 0.45399049973954675, 0</a>
			<d>-0.45399049973954675, 0.8910065241883677, 0</d>
		</elem>
		<elem lid="143">
			<a>0.7071067811865477, 0.7071067811865476, 0</a>
			<d>-0.7071067811865476, 0.7071067811865477, 0</d>
		</elem>
		<elem lid="144">
			<a>0.4539904997395468, 0.8910065241883677, 0</a>
			<d>-0.8910065241883677, 0.4539904997395468, 0</d>
		</elem>
		<elem lid="145">
			<a>0.15643446504023092, 0.9876883405951377, 0</a>
			<d>-0.9876883405951377, 0.15643446504023092, 0</d>
		</elem>
		<elem lid="146">
			<a>-0.1564344650402306, 0.9876883405951378, 0</a>
			<d>-0.9876883405951378, -0.1564344650402306, 0</d>
		</elem>
		<elem lid="147">
			<a>-0.4539904997395467, 0.8910065241883678, 0</a>
			<d>-0.8910065241883678, -0.4539904997395467, 0</d>
		</elem>
		<elem lid="148">
			<a>-0.7071067811865475, 0.7071067811865477, 0</a>
			<d>-0.7071067811865477, -0.7071067811865475, 0</d>
		</elem>
		<elem lid="149">
			<a>-0.8910065241883677, 0.45399049973954686, 0</a>
			<d>-0.45399049973954686, -0.8910065241883677, 0</d>
		</elem>
		<elem lid="150">
			<a>-0.9876883405951377, 0.15643446504023098, 0</a>
			<d>-0.15643446504023098, -0.9876883405951377, 0</d>
		</elem>
		<elem lid="151">
			<a>-0.9876883405951377, -0.15643446504023076, 0</a>
			<d>0.15643446504023076, -0.9876883405951377, 0</d>
		</elem>
		<elem lid="152">
			<a>-0.8910065241883678, -0.45399049973954664, 0</a>
			<d>0.45399049973954664, -0.8910065241883678, 0</d>
		</elem>
		<elem lid="153">
			<a>-0.7071067811865477, -0.7071067811865475, 0</a>
			<d>0.7071067811865475, -0.7071067811865477, 0</d>
		</elem>
		<elem lid="154">
			<a>-0.4539904997395469, -0.8910065241883676, 0</a>
			<d>0.8910065241883676, -0.4539904997395469, 0</d>
		</elem>
		<elem lid="155">
			<a>-0.15643446504023106, -0.9876883405951375, 0</a>
			<d>0.9876883405951375, -0.15643446504023106, 0</d>
		</elem>
		<elem lid="156">
			<a>0.15643446504023067, -0.9876883405951377, 0</a>
			<d>0.9876883405951377, 0.15643446504023067, 0</d>
		</elem>
		<elem lid="157">
			<a>0.4539904997395466, -0.8910065241883678, 0</a>
			<d>0.8910065241883678, 0.4539904997395466, 0</d>
		</elem>
		<elem lid="158">
			<a>0.7071067811865474, -0.7071067811865477, 0</a>
			<d>0.7071067811865477, 0.7071067811865474, 0</d>
		</elem>
		<elem lid="159">
			<a>0.8910065241883676, -0.45399049973954697, 0</a>
			<d>0.45399049973954697, 0.8910065241883676, 0</d>
		</elem>
		<elem lid="160">
			<a>0.9876883405951375, -0.15643446504023112, 0</a>
			<d>0.15643446504023112, 0.9876883405951375, 0</d>
		</elem>
		<elem lid="161">
			<a>0.9876883405951377, 0.15643446504023087, 0</a>
			<d>-0.15643446504023087, 0.9876883405951377, 0</d>
		</elem>
		<elem lid="162">
			<a>0.8910065241883677, 0.45399049973954675, 0</a>
			<d>-0.45399049973954675, 0.8910065241883677, 0</d>
		</elem>
		<elem lid="163">
			<a>0.7071067811865477, 0.7071067811865476, 0</a>
			<d>-0.7071067811865476, 0.7071067811865477, 0</d>
		</elem>
		<elem lid="164">
			<a>0.4539904997395468, 0.8910065241883677, 0</a>
			<d>-0.8910065241883677, 0.4539904997395468, 0</d>
		</elem>
		<elem lid="165">
			<a>0.15643446504023092, 0.9876883405951377, 0</a>
			<d>-0.9876883405951377, 0.15643446504023092, 0</d>
		</elem>
		<elem lid="166">
			<a>-0.1564344650402306, 0.9876883405951378, 0</a>
			<d>-0.9876883405951378, -0.1564344650402306, 0</d>
		</elem>
		<elem lid="167">
			<a>-0.4539904997395467, 0.8910065241883678, 0</a>
			<d>-0.8910065241883678, -0.4539904997395467, 0</d>
		</elem>
		<elem lid="168">
			<a>-0.7071067811865475, 0.7071067811865477, 0</a>
			<d>-0.7071067811865477, -0.7071067811865475, 0</d>
		</elem>
		<elem lid="169">
			<a>-0.8910065241883677, 0.45399049973954686, 0</a>
			<d>-0.45399049973954686, -0.8910065241883677, 0</d>
		</elem>
		<elem lid="170">
			<a>-0.9876883405951377, 0.15643446504023098, 0</a>
			<d>-0.15643446504023098, -0.9876883405951377, 0</d>
		</elem>
		<elem lid="171">
			<a>-0.9876883405951377, -0.15643446504023076, 0</a>
			<d>0.15643446504023076, -0.9876883405951377, 0</d>
		</elem>
		<elem lid="172">
			<a>-0.8910065241883678, -0.45399049973954664, 0</a>
			<d>0.45399049973954664, -0.8910065241883678, 0</d>
		</elem>
		<elem lid="173">
			<a>-0.7071067811865477, -0.7071067811865475, 0</a>
			<d>0.7071067811865475, -0.7071067811865477, 0</d>
		</elem>
		<elem lid="174">
			<a>-0.4539904997395469, -0.8910065241883676, 0</a>
			<d>0.8910065241883676, -0.4539904997395469, 0</d>
		</elem>
		<elem lid="175">
			<a>-0.15643446504023106, -0.9876883405951375, 0</a>
			<d>0.9876883405951375, -0.15643446504023106, 0</d>
		</elem>
		<elem lid="176">
			<a>0.15643446504023067, -0.9876883405951377, 0</a>
			<d>0.9876883405951377, 0.15643446504023067, 0</d>
		</elem>
		<elem lid="177">
			<a>0.4539904997395466, -0.8910065241883678, 0</a>
			<d>0.8910065241883678, 0.4539904997395466, 0</d>
		</elem>
		<elem lid="178">
			<a>0.7071067811865474, -0.7071067811865477, 0</a>
			<d>0.7071067811865477, 0.7071067811865474, 0</d>
		</elem>
		<elem lid="179">
			<a>0.8910065241883676, -0.45399049973954697, 0</a>
			<d>0.45399049973954697, 0.8910065241883676, 0</d>
		</elem>
		<elem lid="180">
			<a>0.9876883405951375, -0.15643446504023112, 0</a>
			<d>0.15643446504023112, 0.9876883405951375, 0</d>
		</elem>
		<elem lid="181">
			<a>0.9876883405951377, 0.15643446504023087, 0</a>
			<d>-0.15643446504023087, 0.9876883405951377, 0</d>
		</elem>
		<elem lid="182">
			<a>0.8910065241883677, 0.45399049973954675, 0</a>
			<d>-0.45399049973954675, 0.8910065241883677, 0</d>
		</elem>
		<elem lid="183">
			<a>0.7071067811865477, 0.7071067811865476, 0</a>
			<d>-0.7071067811865476, 0.7071067811865477, 0</d>
		</elem>
		<elem lid="184">
			<a>0.4539904997395468, 0.8910065241883677, 0</a>
			<d>-0.8910065241883677, 0.4539904997395468, 0</d>
		</elem>
		<elem lid="185">
			<a>0.15643446504023092, 0.9876883405951377, 0</a>
			<d>-0.9876883405951377, 0.15643446504023092, 0</d>
		</elem>
		<elem lid="186">
			<a>-0.1564344650402306, 0.9876883405951378, 0</a>
			<d>-0.9876883405951378, -0.1564344650402306, 0</d>
		</elem>
		<elem lid="187">
			<a>-0.4539904997395467, 0.8910065241883678, 0</a>
			<d>-0.8910065241883678, -0.4539904997395467, 0</d>
		</elem>
		<elem lid="188">
			<a>-0.7071067811865475, 0.7071067811865477, 0</a>
			<d>-0.7071067811865477, -0.7071067811865475, 0</d>
		</elem>
		<elem lid="189">
			<a>-0.8910065241883677, 0.45399049973954686, 0</a>
			<d>-0.45399049973954686, -0.8910065241883677, 0</d>
		</elem>
		<elem lid="190">
			<a>-0.9876883405951377, 0.15643446504023098, 0</a>
			<d>-0.15643446504023098, -0.9876883405951377, 0</d>
		</elem>
		<elem lid="191">
			<a>-0.9876883405951377, -0.15643446504023076, 0</a>
			<d>0.15643446504023076, -0.9876883405951377, 0</d>
		</elem>
		<elem lid="192">
			<a>-0.8910065241883678, -0.45399049973954664, 0</a>
			<d>0.45399049973954664, -0.8910065241883678, 0</d>
		</elem>
		<elem lid="193">
			<a>-0.7071067811865477, -0.7071067811865475, 0</a>
			<d>0.7071067811865475, -0.7071067811865477, 0</d>
		</elem>
		<elem lid="194">
			<a>-0.4539904997395469, -0.8910065241883676, 0</a>
			<d>0.8910065241883676, -0.4539904997395469, 0</d>
		</elem>
		<elem lid="195">
			<a>-0.15643446504023106, -0.9876883405951375, 0</a>
			<d>0.9876883405951375, -0.15643446504023106, 0</d>
		</elem>
		<elem lid="196">
			<a>0.15643446504023067, -0.9876883405951377, 0</a>
			<d>0.9876883405951377, 0.15643446504023067, 0</d>
		</elem>
		<elem lid="197">
			<a>0.4539904997395466, -0.8910065241883678, 0</a>
			<d>0.8910065241883678, 0.4539904997395466, 0</d>
		</elem>
		<elem lid="198">
			<a>0.7071067811865474, -0.7071067811865477, 0</a>
			<d>0.7071067811865477, 0.7071067811865474, 0</d>
		</elem>
		<elem lid="199">
			<a>0.8910065241883676, -0.45399049973954697, 0</a>
			<d>0.45399049973954697, 0.8910065241883676, 0</d>
		</elem>
		<elem lid="200">
			<a>0.9876883405951375, -0.15643446504023112, 0</a>
			<d>0.15643446504023112, 0.9876883405951375, 0</d>
		</elem>
		<elem lid="201">
			<a>0.9876883405951377, 0.15643446504023087, 0</a>
			<d>-0.15643446504023087, 0.9876883405951377, 0</d>
		</elem>
		<elem lid="202">
			<a>0.8910065241883677, 0.45399049973954675, 0</a>
			<d>-0.45399049973954675, 0.8910065241883677, 0</d>
		</elem>
		<elem lid="203">
			<a>0.7071067811865477, 0.7071067811865476, 0</a>
			<d>-0.7071067811865476, 0.7071067811865477, 0</d>
		</elem>
		<elem lid="204">
			<a>0.4539904997395468, 0.8910065241883677, 0</a>
			<d>-0.8910065241883677, 0.4539904997395468, 0</d>
		</elem>
		<elem lid="205">
			<a>0.15643446504023092, 0.9876883405951377, 0</a>
			<d>-0.9876883405951377, 0.15643446504023092, 0</d>
		</elem>
		<elem lid="206">
			<a>-0.1564344650402306, 0.9876883405951378, 0</a>
			<d>-0.9876883405951378, -0.1564344650402306, 0</d>
		</elem>
		<elem lid="207">
			<a>-0.4539904997395467, 0.8910065241883678, 0</a>
			<d>-0.8910065241883678, -0.4539904997395467, 0</d>
		</elem>
		<elem lid="208">
			<a>-0.7071067811865475, 0.7071067811865477, 0</a>
			<d>-0.7071067811865477, -0.7071067811865475, 0</d>
		</elem>
		<elem lid="209">
			<a>-0.8910065241883677, 0.45399049973954686, 0</a>
			<d>-0.45399049973954686, -0.8910065241883677, 0</d>
		</elem>
		<elem lid="210">
			<a>-0.9876883405951377, 0.15643446504023098, 0</a>
			<d>-0.15643446504023098, -0.9876883405951377, 0</d>
		</elem>
		<elem lid="211">
			<a>-0.9876883405951377, -0.15643446504023076, 0</a>
			<d>0.15643446504023076, -0.9876883405951377, 0</d>
		</elem>
		<elem lid="212">
			<a>-0.8910065241883678, -0.45399049973954664, 0</a>
			<d>0.45399049973954664, -0.8910065241883678, 0</d>
		</elem>
		<elem lid="213">
			<a>-0.7071067811865477, -0.7071067811865475, 0</a>
			<d>0.7071067811865475, -0.7071067811865477, 0</d>
		</elem>
		<elem lid="214">
			<a>-0.4539904997395469, -0.8910065241883676, 0</a>
			<d>0.8910065241883676, -0.4539904997395469, 0</d>
		</elem>
		<elem lid="215">
			<a>-0.15643446504023106, -0.9876883405951375, 0</a>
			<d>0.9876883405951375, -0.15643446504023106, 0</d>
		</elem>
		<elem lid="216">
			<a>0.15643446504023067, -0.9876883405951377, 0</a>
			<d>0.9876883405951377, 0.15643446504023067, 0</d>
		</elem>
		<elem lid="217">
			<a>0.4539904997395466, -0.8910065241883678, 0</a>
			<d>0.8910065241883678, 0.4539904997395466, 0</d>
		</elem>
		<elem lid="218">
			<a>0.7071067811865474, -0.7071067811865477, 0</a>
			<d>0.7071067811865477, 0.7071067811865474, 0</d>
		</elem>
		<elem lid="219">
			<a>0.8910065241883676, -0.45399049973954697, 0</a>
			<d>0.45399049973954697, 0.8910065241883676, 0</d>
		</elem>
		<elem lid="220">
			<a>0.9876883405951375, -0.15643446504023112, 0</a>
			<d>0.15643446504023112, 0.9876883405951375, 0</d>
		</elem>
		<elem lid="221">
			<a>0.9876883405951377, 0.15643446504023087, 0</a>
			<d>-0.15643446504023087, 0.9876883405951377, 0</d>
		</elem>
		<elem lid="222">
			<a>0.8910065241883677, 0.45399049973954675, 0</a>
			<d>-0.45399049973954675, 0.8910065241883677, 0</d>
		</elem>
		<elem lid="223">
			<a>0.7071067811865477, 0.7071067811865476, 0</a>
			<d>-0.7071067811865476, 0.7071067811865477, 0</d>
		</elem>
		<elem lid="224">
			<a>0.4539904997395468, 0.8910065241883677, 0</a>
			<d>-0.8910065241883677, 0.4539904997395468, 0</d>
		</elem>
		<elem lid="225">
			<a>0.15643446504023092, 0.9876883405951377, 0</a>
			<d>-0.9876883405951377, 0.15643446504023092, 0</d>
		</elem>
		<elem lid="226">
			<a>-0.1564344650402306, 0.9876883405951378, 0</a>
			<d>-0.9876883405951378, -0.1564344650402306, 0</d>
		</elem>
		<elem lid="227">
			<a>-0.4539904997395467, 0.8910065241883678, 0</a>
			<d>-0.8910065241883678, -0.4539904997395467, 0</d>
		</elem>
		<elem lid="228">
			<a>-0.7071067811865475, 0.7071067811865477, 0</a>
			<d>-0.7071067811865477, -0.7071067811865475, 0</d>
		</elem>
		<elem lid="229">
			<a>-0.8910065241883677, 0.45399049973954686, 0</a>
			<d>-0.45399049973954686, -0.8910065241883677, 0</d>
		</elem>
		<elem lid="230">
			<a>-0.9876883405951377, 0.15643446504023098, 0</a>
			<d>-0.15643446504023098, -0.9876883405951377, 0</d>
		</elem>
		<elem lid="231">
			<a>-0.9876883405951377, -0.15643446504023076, 0</a>
			<d>0.15643446504023076, -0.9876883405951377, 0</d>
		</elem>
		<elem lid="232">
			<a>-0.8910065241883678, -0.45399049973954664, 0</a>
			<d>0.45399049973954664, -0.8910065241883678, 0</d>
		</elem>
		<elem lid="233">
			<a>-0.7071067811865477, -0.7071067811865475, 0</a>
			<d>0.7071067811865475, -0.7071067811865477, 0</d>
		</elem>
		<elem lid="234">
			<a>-0.4539904997395469, -0.8910065241883676, 0</a>
			<d>0.8910065241883676, -0.4539904997395469, 0</d>
		</elem>
		<elem lid="235">
			<a>-0.15643446504023106, -0.9876883405951375, 0</a>
			<d>0.9876883405951375, -0.15643446504023106, 0</d>
		</elem>
		<elem lid="236">
			<a>0.15643446504023067, -0.9876883405951377, 0</a>
			<d>0.9876883405951377, 0.15643446504023067, 0</d>
		</elem>
		<elem lid="237">
			<a>0.4539904997395466, -0.8910065241883678, 0</a>
			<d>0.8910065241883678, 0.4539904997395466, 0</d>
		</elem>
		<elem lid="238">
			<a>0.7071067811865474, -0.7071067811865477, 0</a>
			<d>0.7071067811865477, 0.7071067811865474, 0</d>
		</elem>
		<elem lid="239">
			<a>0.8910065241883676, -0.45399049973954697, 0</a>
			<d>0.45399049973954697, 0.8910065241883676, 0</d>
		</elem>
		<elem lid="240">
			<a>0.9876883405951375, -0.15643446504023112, 0</a>
			<d>0.15643446504023112, 0.9876883405951375, 0</d>
		</elem>
		<elem lid="241">
			<a>0.9876883405951377, 0.15643446504023087, 0</a>
			<d>-0.15643446504023087, 0.9876883405951377, 0</d>
		</elem>
		<elem lid="242">
			<a>0.8910065241883677, 0.45399049973954675, 0</a>
			<d>-0.45399049973954675, 0.8910065241883677, 0</d>
		</elem>
		<elem lid="243">
			<a>0.7071067811865477, 0.7071067811865476, 0</a>
			<d>-0.7071067811865476, 0.7071067811865477, 0</d>
		</elem>
		<elem lid="244">
			<a>0.4539904997395468, 0.8910065241883677, 0</a>
			<d>-0.8910065241883677, 0.4539904997395468, 0</d>
		</elem>
		<elem lid="245">
			<a>0.15643446504023092, 0.9876883405951377, 0</a>
			<d>-0.9876883405951377, 0.15643446504023092, 0</d>
		</elem>
		<elem lid="246">
			<a>-0.1564344650402306, 0.9876883405951378, 0</a>
			<d>-0.9876883405951378, -0.1564344650402306, 0</d>
		</elem>
		<elem lid="247">
			<a>-0.4539904997395467, 0.8910065241883678, 0</a>
			<d>-0.8910065241883678, -0.4539904997395467, 0</d>
		</elem>
		<elem lid="248">
			<a>-0.7071067811865475, 0.7071067811865477, 0</a>
			<d>-0.7071067811865477, -0.7071067811865475, 0</d>
		</elem>
		<elem lid="249">
			<a>-0.8910065241883677, 0.45399049973954686, 0</a>
			<d>-0.45399049973954686, -0.8910065241883677, 0</d>
		</elem>
		<elem lid="250">
			<a>-0.9876883405951377, 0.15643446504023098, 0</a>
			<d>-0.15643446504023098, -0.9876883405951377, 0</d>
		</elem>
		<elem lid="251">
			<a>-0.9876883405951377, -0.15643446504023076, 0</a>
			<d>0.15643446504023076, -0.9876883405951377, 0</d>
		</elem>
		<elem lid="252">
			<a>-0.8910065241883678, -0.45399049973954664, 0</a>
			<d>0.45399049973954664, -0.8910065241883678, 0</d>
		</elem>
		<elem lid="253">
			<a>-0.7071067811865477, -0.7071067811865475, 0</a>
			<d>0.7071067811865475, -0.7071067811865477, 0</d>
		</elem>
		<elem lid="254">
			<a>-0.4539904997395469, -0.8910065241883676, 0</a>
			<d>0.8910065241883676, -0.4539904997395469, 0</d>
		</elem>
		<elem lid="255">
			<a>-0.15643446504023106, -0.9876883405951375, 0</a>
			<d>0.9876883405951375, -0.15643446504023106, 0</d>
		</elem>
		<elem lid="256">
			<a>0.15643446504023067, -0.9876883405951377, 0</a>
			<d>0.9876883405951377, 0.15643446504023067, 0</d>
		</elem>
		<elem lid="257">
			<a>0.4539904997395466, -0.8910065241883678, 0</a>
			<d>0.8910065241883678, 0.4539904997395466, 0</d>
		</elem>
		<elem lid="258">
			<a>0.7071067811865474, -0.7071067811865477, 0</a>
			<d>0.7071067811865477, 0.7071067811865474, 0</d>
		</elem>
		<elem lid="259">
			<a>0.8910065241883676, -0.45399049973954697, 0</a>
			<d>0.45399049973954697, 0.8910065241883676, 0</d>
		</elem>
		<elem lid="260">
			<a>0.9876883405951375, -0.15643446504023112, 0</a>
			<d>0.15643446504023112, 0.9876883405951375, 0</d>
		</elem>
		<elem lid="261">
			<a>0.9876883405951377, 0.15643446504023087, 0</a>
			<d>-0.15643446504023087, 0.9876883405951377, 0</d>
		</elem>
		<elem lid="262">
			<a>0.8910065241883677, 0.45399049973954675, 0</a>
			<d>-0.45399049973954675, 0.8910065241883677, 0</d>
		</elem>
		<elem lid="263">
			<a>0.7071067811865477, 0.7071067811865476, 0</a>
			<d>-0.7071067811865476, 0.7071067811865477, 0</d>
		</elem>
		<elem lid="264">
			<a>0.4539904997395468, 0.8910065241883677, 0</a>
			<d>-0.8910065241883677, 0.4539904997395468, 0</d>
		</elem>
		<elem lid="265">
			<a>0.15643446504023092, 0.9876883405951377, 0</a>
			<d>-0.9876883405951377, 0.15643446504023092, 0</d>
		</elem>
		<elem lid="266">
			<a>-0.1564344650402306, 0.9876883405951378, 0</a>
			<d>-0.9876883405951378, -0.1564344650402306, 0</d>
		</elem>
		<elem lid="267">
			<a>-0.4539904997395467, 0.8910065241883678, 0</a>
			<d>-0.8910065241883678, -0.4539904997395467, 0</d>
		</elem>
		<elem lid="268">
			<a>-0.7071067811865475, 0.7071067811865477, 0</a>
			<d>-0.7071067811865477, -0.7071067811865475, 0</d>
		</elem>
		<elem lid="269">
			<a>-0.8910065241883677, 0.45399049973954686, 0</a>
			<d>-0.45399049973954686, -0.8910065241883677, 0</d>
		</elem>
		<elem lid="270">
			<a>-0.9876883405951377, 0.15643446504023098, 0</a>
			<d>-0.15643446504023098, -0.9876883405951377, 0</d>
		</elem>
		<elem lid="271">
			<a>-0.9876883405951377, -0.15643446504023076, 0</a>
			<d>0.15643446504023076, -0.9876883405951377, 0</d>
		</elem>
		<elem lid="272">
			<a>-0.8910065241883678, -0.45399049973954664, 0</a>
			<d>0.45399049973954664, -0.8910065241883678, 0</d>
		</elem>
		<elem lid="273">
			<a>-0.7071067811865477, -0.7071067811865475, 0</a>
			<d>0.7071067811865475, -0.7071067811865477, 0</d>
		</elem>
		<elem lid="274">
			<a>-0.4539904997395469, -0.8910065241883676, 0</a>
			<d>0.8910065241883676, -0.4539904997395469, 0</d>
		</elem>
		<elem lid="275">
			<a>-0.15643446504023106, -0.9876883405951375, 0</a>
			<d>0.9876883405951375, -0.15643446504023106, 0</d>
		</elem>
		<elem lid="276">
			<a>0.15643446504023067, -0.9876883405951377, 0</a>
			<d>0.9876883405951377, 0.15643446504023067, 0</d>
		</elem>
		<elem lid="277">
			<a>0.4539904997395466, -0.8910065241883678, 0</a>
			<d>0.8910065241883678, 0.4539904997395466, 0</d>
		</elem>
		<elem lid="278">
			<a>0.7071067811865474, -0.7071067811865477, 0</a>
			<d>0.7071067811865477, 0.7071067811865474, 0</d>
		</elem>
		<elem lid="279">
			<a>0.8910065241883676, -0.45399049973954697, 0</a>
			<d>0.45399049973954697, 0.8910065241883676, 0</d>
		</elem>
		<elem lid="280">
			<a>0.9876883405951375, -0.15643446504023112, 0</a>
			<d>0.15643446504023112, 0.9876883405951375, 0</d>
		</elem>
		<elem lid="281">
			<a>0.9876883405951377, 0.15643446504023087, 0</a>
			<d>-0.15643446504023087, 0.9876883405951377, 0</d>
		</elem>
		<elem lid="282">
			<a>0.8910065241883677, 0.45399049973954675, 0</a>
			<d>-0.45399049973954675, 0.8910065241883677, 0</d>
		</elem>
		<elem lid="283">
			<a>0.7071067811865477, 0.7071067811865476, 0</a>
			<d>-0.7071067811865476, 0.7071067811865477, 0</d>
		</elem>
		<elem lid="284">
			<a>0.4539904997395468, 0.8910065241883677, 0</a>
			<d>-0.8910065241883677, 0.4539904997395468, 0</d>
		</elem>
		<elem lid="285">
			<a>0.15643446504023092, 0.9876883405951377, 0</a>
			<d>-0.9876883405951377, 0.15643446504023092, 0</d>
		</elem>
		<elem lid="286">
			<a>-0.1564344650402306, 0.9876883405951378, 0</a>
			<d>-0.9876883405951378, -0.1564344650402306, 0</d>
		</elem>
		<elem lid="287">
			<a>-0.4539904997395467, 0.8910065241883678, 0</a>
			<d>-0.8910065241883678, -0.4539904997395467, 0</d>
		</elem>
		<elem lid="288">
			<a>-0.7071067811865475, 0.7071067811865477, 0</a>
			<d>-0.7071067811865477, -0.7071067811865475, 0</d>
		</elem>
		<elem lid="289">
			<a>-0.8910065241883677, 0.45399049973954686, 0</a>
			<d>-0.45399049973954686, -0.8910065241883677, 0</d>
		</elem>
		<elem lid="290">
			<a>-0.9876883405951377, 0.15643446504023098, 0</a>
			<d>-0.15643446504023098, -0.9876883405951377, 0</d>
		</elem>
		<elem lid="291">
			<a>-0.9876883405951377, -0.15643446504023076, 0</a>
			<d>0.15643446504023076, -0.9876883405951377, 0</d>
		</elem>
		<elem lid="292">
			<a>-0.8910065241883678, -0.45399049973954664, 0</a>
			<d>0.45399049973954664, -0.8910065241883678, 0</d>
		</elem>
		<elem lid="293">
			<a>-0.7071067811865477, -0.7071067811865475, 0</a>
			<d>0.7071067811865475, -0.7071067811865477, 0</d>
		</elem>
		<elem lid="294">
			<a>-0.4539904997395469, -0.8910065241883676, 0</a>
			<d>0.8910065241883676, -0.4539904997395469, 0</d>
		</elem>
		<elem lid="295">
			<a>-0.15643446504023106, -0.9876883405951375, 0</a>
			<d>0.9876883405951375, -0.15643446504023106, 0</d>
		</elem>
		<elem lid="296">
			<a>0.15643446504023067, -0.9876883405951377, 0</a>
			<d>0.9876883405951377, 0.15643446504023067, 0</d>
		</elem>
		<elem lid="297">
			<a>0.4539904997395466, -0.8910065241883678, 0</a>
			<d>0.8910065241883678, 0.4539904997395466, 0</d>
		</elem>
		<elem lid="298">
			<a>0.7071067811865474, -0.7071067811865477, 0</a>
			<d>0.7071067811865477, 0.7071067811865474, 0</d>
		</elem>
		<elem lid="299">
			<a>0.8910065241883676, -0.45399049973954697, 0</a>
			<d>0.45399049973954697, 0.8910065241883676, 0</d>
		</elem>
		<elem lid="300">
			<a>0.9876883405951375, -0.15643446504023112, 0</a>
			<d>0.15643446504023112, 0.9876883405951375, 0</d>
		</elem>
		<elem lid="301">
			<a>0.9876883405951377, 0.15643446504023087, 0</a>
			<d>-0.15643446504023087, 0.9876883405951377, 0</d>
		</elem>
		<elem lid="302">
			<a>0.8910065241883677, 0.45399049973954675, 0</a>
			<d>-0.45399049973954675, 0.8910065241883677, 0</d>
		</elem>
		<elem lid="303">
			<a>0.7071067811865477, 0.7071067811865476, 0</a>
			<d>-0.7071067811865476, 0.7071067811865477, 0</d>
		</elem>
		<elem lid="304">
			<a>0.4539904997395468, 0.8910065241883677, 0</a>
			<d>-0.8910065241883677, 0.4539904997395468, 0</d>
		</elem>
		<elem lid="305">
			<a>0.15643446504023092, 0.9876883405951377, 0</a>
			<d>-0.9876883405951377, 0.15643446504023092, 0</d>
		</elem>
		<elem lid="306">
			<a>-0.1564344650402306, 0.9876883405951378, 0</a>
			<d>-0.9876883405951378, -0.1564344650402306, 0</d>
		</elem>
		<elem lid="307">
			<a>-0.4539904997395467, 0.8910065241883678, 0</a>
			<d>-0.8910065241883678, -0.4539904997395467, 0</d>
		</elem>
		<elem lid="308">
			<a>-0.7071067811865475, 0.7071067811865477, 0</a>
			<d>-0.7071067811865477, -0.7071067811865475, 0</d>
		</elem>
		<elem lid="309">
			<a>-0.8910065241883677, 0.45399049973954686, 0</a>
			<d>-0.45399049973954686, -0.8910065241883677, 0</d>
		</elem>
		<elem lid="310">
			<a>-0.9876883405951377, 0.15643446504023098, 0</a>
			<d>-0.15643446504023098, -0.9876883405951377, 0</d>
		</elem>
		<elem lid="311">
			<a>-0.9876883405951377, -0.15643446504023076, 0</a>
			<d>0.15643446504023076, -0.9876883405951377, 0</d>
		</elem>
		<elem lid="312">
			<a>-0.8910065241883678, -0.45399049973954664, 0</a>
			<d>0.45399049973954664, -0.8910065241883678, 0</d>
		</elem>
		<elem lid="313">
			<a>-0.7071067811865477, -0.7071067811865475, 0</a>
			<d>0.7071067811865475, -0.7071067811865477, 0</d>
		</elem>
		<elem lid="314">
			<a>-0.4539904997395469, -0.8910065241883676, 0</a>
			<d>0.8910065241883676, -0.4539904997395469, 0</d>
		</elem>
		<elem lid="315">
			<a>-0.15643446504023106, -0.9876883405951375, 0</a>
			<d>0.9876883405951375, -0.15643446504023106, 0</d>
		</elem>
		<elem lid="316">
			<a>0.15643446504023067, -0.9876883405951377, 0</a>
			<d>0.9876883405951377, 0.15643446504023067, 0</d>
		</elem>
		<elem lid="317">
			<a>0.4539904997395466, -0.8910065241883678, 0</a>
			<d>0.8910065241883678, 0.4539904997395466, 0</d>
		</elem>
		<elem lid="318">
			<a>0.7071067811865474, -0.7071067811865477, 0</a>
			<d>0.7071067811865477, 0.7071067811865474, 0</d>
		</elem>
		<elem lid="319">
			<a>0.8910065241883676, -0.45399049973954697, 0</a>
			<d>0.45399049973954697, 0.8910065241883676, 0</d>
		</elem>
		<elem lid="320">
			<a>0.9876883405951375, -0.15643446504023112, 0</a>
			<d>0.15643446504023112, 0.9876883405951375, 0</d>
		</elem>
		<elem lid="321">
			<a>0.9876883405951377, 0.15643446504023087, 0</a>
			<d>-0.15643446504023087, 0.9876883405951377, 0</d>
		</elem>
		<elem lid="322">
			<a>0.8910065241883677, 0.45399049973954675, 0</a>
			<d>-0.45399049973954675, 0.8910065241883677, 0</d>
		</elem>
		<elem lid="323">
			<a>0.7071067811865477, 0.7071067811865476, 0</a>
			<d>-0.7071067811865476, 0.7071067811865477, 0</d>
		</elem>
		<elem lid="324">
			<a>0.4539904997395468, 0.8910065241883677, 0</a>
			<d>-0.8910065241883677, 0.4539904997395468, 0</d>
		</elem>
		<elem lid="325">
			<a>0.15643446504023092, 0.9876883405951377, 0</a>
			<d>-0.9876883405951377, 0.15643446504023092, 0</d>
		</elem>
		<elem lid="326">
			<a>-0.1564344650402306, 0.9876883405951378, 0</a>
			<d>-0.9876883405951378, -0.1564344650402306, 0</d>
		</elem>
		<elem lid="327">
			<a>-0.4539904997395467, 0.8910065241883678, 0</a>
			<d>-0.8910065241883678, -0.4539904997395467, 0</d>
		</elem>
		<elem lid="328">
			<a>-0.7071067811865475, 0.7071067811865477, 0</a>
			<d>-0.7071067811865477, -0.7071067811865475, 0</d>
		</elem>
		<elem lid="329">
			<a>-0.8910065241883677, 0.45399049973954686, 0</a>
			<d>-0.45399049973954686, -0.8910065241883677, 0</d>
		</elem>
		<elem lid="330">
			<a>-0.9876883405951377, 0.15643446504023098, 0</a>
			<d>-0.15643446504023098, -0.9876883405951377, 0</d>
		</elem>
		<elem lid="331">
			<a>-0.9876883405951377, -0.15643446504023076, 0</a>
			<d>0.15643446504023076, -0.9876883405951377, 0</d>
		</elem>
		<elem lid="332">
			<a>-0.8910065241883678, -0.45399049973954664, 0</a>
			<d>0.45399049973954664, -0.8910065241883678, 0</d>
		</elem>
		<elem lid="333">
			<a>-0.7071067811865477, -0.7071067811865475, 0</a>
			<d>0.7071067811865475, -0.7071067811865477, 0</d>
		</elem>
		<elem lid="334">
			<a>-0.4539904997395469, -0.8910065241883676, 0</a>
			<d>0.8910065241883676, -0.4539904997395469, 0</d>
		</elem>
		<elem lid="335">
			<a>-0.15643446504023106, -0.9876883405951375, 0</a>
			<d>0.9876883405951375, -0.15643446504023106, 0</d>
		</elem>
		<elem lid="336">
			<a>0.15643446504023067, -0.9876883405951377, 0</a>
			<d>0.9876883405951377, 0.15643446504023067, 0</d>
		</elem>
		<elem lid="337">
			<a>0.4539904997395466, -0.8910065241883678, 0</a>
			<d>0.8910065241883678, 0.4539904997395466, 0</d>
		</elem>
		<elem lid="338">
			<a>0.7071067811865474, -0.7071067811865477, 0</a>
			<d>0.7071067811865477, 0.7071067811865474, 0</d>
		</elem>
		<elem lid="339">
			<a>0.8910065241883676, -0.45399049973954697, 0</a>
			<d>0.45399049973954697, 0.8910065241883676, 0</d>
		</elem>
		<elem lid="340">
			<a>0.9876883405951375, -0.15643446504023112, 0</a>
			<d>0.15643446504023112, 0.9876883405951375, 0</d>
		</elem>
		<elem lid="341">
			<a>0.9876883405951377, 0.15643446504023087, 0</a>
			<d>-0.15643446504023087, 0.9876883405951377, 0</d>
		</elem>
		<elem lid="342">
			<a>0.8910065241883677, 0.45399049973954675, 0</a>
			<d>-0.45399049973954675, 0.8910065241883677, 0</d>
		</elem>
		<elem lid="343">
			<a>0.7071067811865477, 0.7071067811865476, 0</a>
			<d>-0.7071067811865476, 0.7071067811865477, 0</d>
		</elem>
		<elem lid="344">
			<a>0.4539904997395468, 0.8910065241883677, 0</a>
			<d>-0.8910065241883677, 0.4539904997395468, 0</d>
		</elem>
		<elem lid="345">
			<a>0.15643446504023092, 0.9876883405951377, 0</a>
			<d>-0.9876883405951377, 0.15643446504023092, 0</d>
		</elem>
		<elem lid="346">
			<a>-0.1564344650402306, 0.9876883405951378, 0</a>
			<d>-0.9876883405951378, -0.1564344650402306, 0</d>
		</elem>
		<elem lid="347">
			<a>-0.4539904997395467, 0.8910065241883678, 0</a>
			<d>-0.8910065241883678, -0.4539904997395467, 0</d>
		</elem>
		<elem lid="348">
			<a>-0.7071067811865475, 0.7071067811865477, 0</a>
			<d>-0.7071067811865477, -0.7071067811865475, 0</d>
		</elem>
		<elem lid="349">
			<a>-0.8910065241883677, 0.45399049973954686, 0</a>
			<d>-0.45399049973954686, -0.8910065241883677, 0</d>
		</elem>
		<elem lid="350">
			<a>-0.9876883405951377, 0.15643446504023098, 0</a>
			<d>-0.15643446504023098, -0.9876883405951377, 0</d>
		</elem>
		<elem lid="351">
			<a>-0.9876883405951377, -0.15643446504023076, 0</a>
			<d>0.15643446504023076, -0.9876883405951377, 0</d>
		</elem>
		<elem lid="352">
			<a>-0.8910065241883678, -0.45399049973954664, 0</a>
			<d>0.45399049973954664, -0.8910065241883678, 0</d>
		</elem>
		<elem lid="353">
			<a>-0.7071067811865477, -0.7071067811865475, 0</a>
			<d>0.7071067811865475, -0.7071067811865477, 0</d>
		</elem>
		<elem lid="354">
			<a>-0.4539904997395469, -0.8910065241883676, 0</a>
			<d>0.8910065241883676, -0.4539904997395469, 0</d>
		</elem>
		<elem lid="355">
			<a>-0.15643446504023106, -0.9876883405951375, 0</a>
			<d>0.9876883405951375, -0.15643446504023106, 0</d>
		</elem>
		<elem lid="356">
			<a>0.15643446504023067, -0.9876883405951377, 0</a>
			<d>0.9876883405951377, 0.15643446504023067, 0</d>
		</elem>
		<elem lid="357">
			<a>0.4539904997395466, -0.8910065241883678, 0</a>
			<d>0.8910065241883678, 0.4539904997395466, 0</d>
		</elem>
		<elem lid="358">
			<a>0.7071067811865474, -0.7071067811865477, 0</a>
			<d>0.7071067811865477, 0.7071067811865474, 0</d>
		</elem>
		<elem lid="359">
			<a>0.8910065241883676, -0.45399049973954697, 0</a>
			<d>0.45399049973954697, 0.8910065241883676, 0</d>
		</elem>
		<elem lid="360">
			<a>0.9876883405951375, -0.15643446504023112, 0</a>
			<d>0.15643446504023112, 0.9876883405951375, 0</d>
		</elem>
		<elem lid="361">
			<a>0.9876883405951377, 0.15643446504023087, 0</a>
			<d>-0.15643446504023087, 0.9876883405951377, 0</d>
		</elem>
		<elem lid="362">
			<a>0.8910065241883677, 0.45399049973954675, 0</a>
			<d>-0.45399049973954675, 0.8910065241883677, 0</d>
		</elem>
		<elem lid="363">
			<a>0.7071067811865477, 0.7071067811865476, 0</a>
			<d>-0.7071067811865476, 0.7071067811865477, 0</d>
		</elem>
		<elem lid="364">
			<a>0.4539904997395468, 0.8910065241883677, 0</a>
			<d>-0.8910065241883677, 0.4539904997395468, 0</d>
		</elem>
		<elem lid="365">
			<a>0.15643446504023092, 0.9876883405951377, 0</a>
			<d>-0.9876883405951377, 0.15643446504023092, 0</d>
		</elem>
		<elem lid="366">
			<a>-0.1564344650402306, 0.9876883405951378, 0</a>
			<d>-0.9876883405951378, -0.1564344650402306, 0</d>
		</elem>
		<elem lid="367">
			<a>-0.4539904997395467, 0.8910065241883678, 0</a>
			<d>-0.8910065241883678, -0.4539904997395467, 0</d>
		</elem>
		<elem lid="368">
			<a>-0.7071067811865475, 0.7071067811865477, 0</a>
			<d>-0.7071067811865477, -0.7071067811865475, 0</d>
		</elem>
		<elem lid="369">
			<a>-0.8910065241883677, 0.45399049973954686, 0</a>
			<d>-0.45399049973954686, -0.8910065241883677, 0</d>
		</elem>
		<elem lid="370">
			<a>-0.9876883405951377, 0.15643446504023098, 0</a>
			<d>-0.15643446504023098, -0.9876883405951377, 0</d>
		</elem>
		<elem lid="371">
			<a>-0.9876883405951377, -0.15643446504023076, 0</a>
			<d>0.15643446504023076, -0.9876883405951377, 0</d>
		</elem>
		<elem lid="372">
			<a>-0.8910065241883678, -0.45399049973954664, 0</a>
			<d>0.45399049973954664, -0.8910065241883678, 0</d>
		</elem>
		<elem lid="373">
			<a>-0.7071067811865477, -0.7071067811865475, 0</a>
			<d>0.7071067811865475, -0.7071067811865477, 0</d>
		</elem>
		<elem lid="374">
			<a>-0.4539904997395469, -0.8910065241883676, 0</a>
			<d>0.8910065241883676, -0.4539904997395469, 0</d>
		</elem>
		<elem lid="375">
			<a>-0.15643446504023106, -0.9876883405951375, 0</a>
			<d>0.9876883405951375, -0.15643446504023106, 0</d>
		</elem>
		<elem lid="376">
			<a>0.15643446504023067, -0.9876883405951377, 0</a>
			<d>0.9876883405951377, 0.15643446504023067, 0</d>
		</elem>
		<elem lid="377">
			<a>0.4539904997395466, -0.8910065241883678, 0</a>
			<d>0.8910065241883678, 0.4539904997395466, 0</d>
		</elem>
		<elem lid="378">
			<a>0.7071067811865474, -0.7071067811865477, 0</a>
			<d>0.7071067811865477, 0.7071067811865474, 0</d>
		</elem>
		<elem lid="379">
			<a>0.8910065241883676, -0.45399049973954697, 0</a>
			<d>0.45399049973954697, 0.8910065241883676, 0</d>
		</elem>
		<elem lid="380">
			<a>0.9876883405951375, -0.15643446504023112, 0</a>
			<d>0.15643446504023112, 0.9876883405951375, 0</d>
		</elem>
		<elem lid="381">
			<a>0.9876883405951377, 0.15643446504023087, 0</a>
			<d>-0.15643446504023087, 0.9876883405951377, 0</d>
		</elem>
		<elem lid="382">
			<a>0.8910065241883677, 0.45399049973954675, 0</a>
			<d>-0.45399049973954675, 0.8910065241883677, 0</d>
		</elem>
		<elem lid="383">
			<a>0.7071067811865477, 0.7071067811865476, 0</a>
			<d>-0.7071067811865476, 0.7071067811865477, 0</d>
		</elem>
		<elem lid="384">
			<a>0.4539904997395468, 0.8910065241883677, 0</a>
			<d>-0.8910065241883677, 0.4539904997395468, 0</d>
		</elem>
		<elem lid="385">
			<a>0.15643446504023092, 0.9876883405951377, 0</a>
			<d>-0.9876883405951377, 0.15643446504023092, 0</d>
		</elem>
		<elem lid="386">
			<a>-0.1564344650402306, 0.9876883405951378, 0</a>
			<d>-0.9876883405951378, -0.1564344650402306, 0</d>
		</elem>
		<elem lid="387">
			<a>-0.4539904997395467, 0.8910065241883678, 0</a>
			<d>-0.8910065241883678, -0.4539904997395467, 0</d>
		</elem>
		<elem lid="388">
			<a>-0.7071067811865475, 0.7071067811865477, 0</a>
			<d>-0.7071067811865477, -0.7071067811865475, 0</d>
		</elem>
		<elem lid="389">
			<a>-0.8910065241883677, 0.45399049973954686, 0</a>
			<d>-0.45399049973954686, -0.8910065241883677, 0</d>
		</elem>
		<elem lid="390">
			<a>-0.9876883405951377, 0.15643446504023098, 0</a>
			<d>-0.15643446504023098, -0.9876883405951377, 0</d>
		</elem>
		<elem lid="391">
			<a>-0.9876883405951377, -0.15643446504023076, 0</a>
			<d>0.15643446504023076, -0.9876883405951377, 0</d>
		</elem>
		<elem lid="392">
			<a>-0.8910065241883678, -0.45399049973954664, 0</a>
			<d>0.45399049973954664, -0.8910065241883678, 0</d>
		</elem>
		<elem lid="393">
			<a>-0.7071067811865477, -0.7071067811865475, 0</a>
			<d>0.7071067811865475, -0.7071067811865477, 0</d>
		</elem>
		<elem lid="394">
			<a>-0.4539904997395469, -0.8910065241883676, 0</a>
			<d>0.8910065241883676, -0.4539904997395469, 0</d>
		</elem>
		<elem lid="395">
			<a>-0.15643446504023106, -0.9876883405951375, 0</a>
			<d>0.9876883405951375, -0.15643446504023106, 0</d>
		</elem>
		<elem lid="396">
			<a>0.15643446504023067, -0.9876883405951377, 0</a>
			<d>0.9876883405951377, 0.15643446504023067, 0</d>
		</elem>
		<elem lid="397">
			<a>0.4539904997395466, -0.8910065241883678, 0</a>
			<d>0.8910065241883678, 0.4539904997395466, 0</d>
		</elem>
		<elem lid="398">
			<a>0.7071067811865474, -0.7071067811865477, 0</a>
			<d>0.7071067811865477, 0.7071067811865474, 0</d>
		</elem>
		<elem lid="399">
			<a>0.8910065241883676, -0.45399049973954697, 0</a>
			<d>0.45399049973954697, 0.8910065241883676, 0</d>
		</elem>
		<elem lid="400">
			<a>0.9876883405951375, -0.15643446504023112, 0</a>
			<d>0.15643446504023112, 0.9876883405951375, 0</d>
		</elem>
	</ElementData>
	</MeshData>
    <Loads>
        <surface_load type="pressure" surface="PressureLoad1">
            <pressure lc="1">13.9868</pressure>
            <linear>0</linear>
            <symmetric_stiffness>0</symmetric_stiffness>
        </surface_load>
    </Loads>
	<LoadData>
		<load_controller id="1" type="loadcurve">
			<interpolate>LINEAR</interpolate>
			<points>
				<point>0,1.0</point>
				<point>10,1.0</point>
			</points>
		</load_controller>
		<load_controller id="2" type="loadcurve">
			<interpolate>LINEAR</interpolate>
			<points>
				<point>0,0.0</point>
				<point>80,1.0</point>
			</points>
		</load_controller>
	</LoadData>
    <Output>
        <plotfile type="vtk">
            <var type="displacement"/>
            <var type="relative volume"/>
            <var type="stress"/>
			<var type="SPR stress"/>
			<var type="Lagrange strain"/>
			<var type="SPR principal stress"/>
            <var type="strain energy density"/>
            <var type="acceleration"/>
			<var type="velocity"/>
        </plotfile>
    </Output>
</febio_spec>